17
11/12/2021 13:58, XYZ structure generated by mol3D Class, molSimplify
Fe 	0.000000	0.000000	0.000000
C 	3.145831	0.168321	0.748625
N 	3.440883	0.547594	2.007551
N 	4.546110	-0.108129	2.319179
N 	4.906134	-0.855208	1.288859
N 	4.055074	-0.709110	0.287819
C 	2.007651	0.643394	-0.000000
N 	1.125605	1.571435	0.602769
C 	0.000000	2.108227	0.000000
C 	-0.291296	1.705300	-1.303612
C 	0.551415	0.784798	-1.951147
C 	1.687445	0.259353	-1.308732
H 	5.746180	-1.473479	1.270682
H 	-0.627280	2.814609	0.526892
H 	-1.161464	2.100220	-1.811961
H 	0.320444	0.476049	-2.962473
H 	2.319949	-0.447809	-1.830243
