49
11/12/2021 13:58, XYZ structure generated by mol3D Class, molSimplify
Fe 	0.000000	0.000000	0.000000
C 	3.140531	0.056232	0.737729
N 	3.527695	0.538045	1.933821
N 	4.628213	-0.107297	2.213128
N 	4.929235	-0.933310	1.257329
N 	4.029116	-0.844440	0.286545
C 	2.007651	0.643394	0.000000
N 	1.234239	1.701545	0.673072
C 	0.000000	2.108227	0.000000
C 	0.442157	2.585771	-1.269741
C 	1.488403	1.898726	-1.968100
C 	2.188876	0.825913	-1.372768
H 	5.765174	-1.557170	1.232110
H 	-0.742357	2.717896	0.500171
H 	-0.119884	3.347380	-1.795032
H 	1.675347	2.126841	-3.009092
H 	2.917481	0.239788	-1.924011
C 	0.713256	-0.018926	3.185887
N 	1.873442	-0.599413	3.604731
N 	2.190180	0.037195	4.696746
N 	1.255305	0.935677	4.975244
N 	0.302017	0.913313	4.035494
C 	0.000000	-0.584311	2.025636
N 	0.665467	-1.672135	1.256461
C 	0.000000	-2.108227	0.000000
C 	-1.264264	-2.618324	0.343838
C 	-1.901192	-2.133293	1.525735
C 	-1.325363	-1.039182	2.307415
H 	1.270973	1.567812	5.802688
H 	0.510285	-2.729432	-0.695465
H 	-1.755297	-3.311448	-0.334210
H 	-2.919536	-2.463695	1.698823
H 	-1.913571	-0.576591	3.090754
C 	0.377798	-0.770740	-2.964031
N 	0.744671	-2.054268	-2.764063
N 	1.640721	-2.339923	-3.693334
N 	1.806217	-1.269292	-4.447232
N 	1.029879	-0.275970	-4.042265
C 	-0.530138	0.000000	-2.040484
N 	-1.651874	-0.663092	-1.278278
C 	-2.108227	0.000000	0.000000
C 	-2.592946	1.259274	-0.452455
C 	-2.233750	1.763644	-1.755045
C 	-1.208596	1.138465	-2.564763
H 	2.463407	-1.229244	-5.262931
H 	-2.877093	-0.308237	0.680927
H 	-3.311835	1.809039	0.144816
H 	-2.694181	2.681183	-2.097836
H 	-0.915019	1.599603	-3.500643
