22
11/12/2021 13:59, XYZ structure generated by mol3D Class, molSimplify
Fe 	0.000000	0.000000	0.000000
C 	2.262859	3.077222	0.079465
C 	1.365826	1.887396	0.015274
O 	0.000000	2.080000	0.000000
O 	2.025767	0.471879	0.000000
H 	2.928215	3.081741	-0.808054
H 	1.665067	4.011692	0.096628
H 	2.876747	3.018021	1.000972
C 	0.040080	-3.041173	2.291078
C 	0.008884	-1.864953	1.377346
O 	0.000000	-2.080000	0.000000
O 	0.000000	-0.427418	2.035611
H 	-0.857455	-3.017978	2.943534
H 	0.048094	-3.985889	1.709060
H 	0.952793	-2.988394	2.919510
C 	-3.011457	-0.002304	-2.313009
C 	-1.845164	-0.000227	-1.387726
O 	-2.080000	0.000000	0.000000
O 	-0.386888	0.000000	-2.043702
H 	-2.965841	-0.908283	-2.952644
H 	-3.962291	-0.003154	-1.741128
H 	-2.967917	0.902374	-2.954164
