61
11/12/2021 13:59, XYZ structure generated by mol3D Class, molSimplify
Fe 	0.000000	0.000000	0.000000
N 	1.558503	3.423290	0.427506
C 	2.710723	2.820549	0.816691
C 	2.391059	1.491073	1.084876
C 	0.952697	1.247584	0.931996
C 	0.598351	2.489679	0.487098
H 	1.467929	4.359404	0.036447
H 	3.642342	3.370339	0.873763
H 	3.115826	0.906625	1.614406
H 	0.482666	0.954465	1.873493
H 	-0.253226	2.515548	-0.042535
N 	2.337071	-2.030683	-2.030777
C 	1.943245	-3.346054	-1.962413
C 	2.406962	-3.872080	-0.786820
C 	3.197283	-2.859046	-0.194991
C 	2.960445	-1.653457	-0.859706
H 	2.099337	-1.408427	-2.789672
H 	1.342608	-3.793175	-2.743110
H 	2.201269	-4.857930	-0.382124
H 	3.691664	-3.004741	0.755337
H 	3.074335	-0.553075	-0.546005
N 	-2.302837	-1.560577	-0.531160
C 	-3.605795	-1.967974	-0.460021
C 	-3.600676	-3.296330	-0.104849
C 	-2.246623	-3.680948	0.100336
C 	-1.464663	-2.567432	-0.103686
H 	-1.972340	-0.622185	-0.728880
H 	-4.414201	-1.273877	-0.652381
H 	-4.481337	-3.912445	0.023016
H 	-1.894081	-4.654525	0.410709
H 	-0.392301	-2.329964	0.013524
N 	-2.429611	2.387570	1.406214
C 	-2.428218	3.681519	0.949638
C 	-3.272527	3.748017	-0.134993
C 	-3.780073	2.443459	-0.354632
C 	-3.185930	1.611349	0.567697
H 	-1.860626	2.032991	2.164181
H 	-1.802354	4.429638	1.417915
H 	-3.481928	4.635961	-0.717151
H 	-4.468763	2.139099	-1.131638
H 	-3.212392	0.534135	0.701724
N 	1.960981	-1.341249	1.867762
C 	3.213671	-1.274232	2.387905
C 	3.076452	-1.525356	3.727895
C 	1.677965	-1.540861	4.022980
C 	1.019770	-1.251859	2.853344
H 	1.695351	-1.218583	0.901385
H 	4.094365	-1.090109	1.781514
H 	3.904150	-1.654557	4.410861
H 	1.243540	-1.670837	5.001308
H 	0.029292	-0.976260	2.467421
N 	0.037387	2.119165	-3.333038
C 	0.860817	3.208308	-3.219326
C 	2.047601	2.799924	-2.660618
C 	1.929041	1.416127	-2.428723
C 	0.689141	1.011814	-2.866047
H 	-0.920979	2.133043	-3.657914
H 	0.515286	4.187217	-3.512474
H 	2.882323	3.424187	-2.372387
H 	2.656026	0.816392	-1.913370
H 	0.180240	0.057634	-2.806432
