61
11/12/2021 13:59, XYZ structure generated by mol3D Class, molSimplify
Fe 	0.000000	0.000000	0.000000
N 	-0.749632	0.868251	-0.905631
C 	-2.011200	0.643003	-1.289559
C 	-2.628280	1.876645	-1.471180
C 	-1.759638	2.832331	-0.932348
C 	-0.677783	2.116110	-0.476531
H 	-0.222713	0.850808	-1.755260
H 	-2.458818	-0.330455	-1.452366
H 	-3.624391	2.054382	-1.856908
H 	-1.936954	3.894691	-0.824399
H 	0.217584	2.389593	0.058189
N 	2.546142	-2.236745	-0.624461
C 	2.394799	-3.453115	-0.002564
C 	2.646052	-3.281609	1.338531
C 	3.034614	-1.933831	1.507526
C 	2.837505	-1.267196	0.311049
H 	2.358843	-2.055379	-1.586865
H 	2.079231	-4.327749	-0.554801
H 	2.543865	-4.029628	2.116021
H 	3.297656	-1.475723	2.447358
H 	2.774135	-0.182215	0.068384
N 	-1.935962	-3.711138	0.563808
C 	-3.069024	-3.703913	1.341263
C 	-2.911876	-2.739840	2.308802
C 	-1.613387	-2.213744	2.141774
C 	-1.119279	-2.681448	0.942315
H 	-1.763921	-4.342542	-0.205822
H 	-3.891191	-4.375683	1.139381
H 	-3.639503	-2.444125	3.054674
H 	-1.150449	-1.460029	2.753150
H 	-0.264449	-2.324266	0.341157
N 	-1.680207	1.117362	2.633713
C 	-1.819406	2.334397	3.238550
C 	-2.984838	2.884772	2.763329
C 	-3.538920	1.965346	1.826258
C 	-2.666490	0.899851	1.700728
H 	-0.875500	0.529393	2.742744
H 	-1.060272	2.705733	3.915537
H 	-3.354381	3.868065	3.020985
H 	-4.414740	2.139196	1.218686
H 	-2.538430	0.070198	0.941301
N 	2.317210	0.583607	3.633404
C 	3.438993	1.380518	3.539490
C 	3.349153	2.116954	2.385292
C 	2.191801	1.660922	1.728645
C 	1.596284	0.658955	2.459966
H 	2.154614	-0.090032	4.373866
H 	4.225687	1.326688	4.272254
H 	4.078674	2.815564	1.994079
H 	1.955961	1.936728	0.727417
H 	0.796526	-0.112137	2.186755
N 	2.833041	0.367099	-3.372531
C 	3.778464	1.276356	-2.997280
C 	3.148892	2.351680	-2.412140
C 	1.765872	2.104734	-2.516146
C 	1.599434	0.849471	-3.063851
H 	3.011730	-0.528295	-3.801654
H 	4.823371	1.074218	-3.150896
H 	3.618107	3.214309	-1.975089
H 	0.993393	2.775300	-2.167449
H 	0.727908	0.234709	-3.251780
