13
10/26/2021 11:00, XYZ structure generated by mol3D Class, molSimplify
Fe 	0.000000	0.000000	0.000000
O 	-1.499066	1.499066	0.000000
H 	-1.407541	2.447839	0.271333
H 	-2.448453	1.415651	-0.271987
O 	-1.499066	-1.499066	0.000000
H 	-2.454076	-1.404888	0.247799
H 	-1.406383	-2.454187	-0.247714
O 	1.499066	-1.499066	0.000000
H 	1.404994	-2.460620	0.221014
H 	2.459452	-1.394042	-0.221545
O 	1.499066	1.499066	0.000000
H 	1.650381	2.208810	0.674966
H 	2.208802	1.650476	-0.674918
