61
05/20/2022 16:04, XYZ structure generated by mol3D Class, molSimplify
Fe 	0.000000	0.000000	0.000000
C 	2.752296	1.063701	-0.140898
N 	1.952580	-0.068141	0.000000
N 	2.647801	-1.198108	0.089865
N 	3.895786	-0.770777	0.066569
C 	4.031562	0.590614	-0.092268
C 	2.203384	2.409370	-0.240183
N 	1.147843	2.357976	0.577100
C 	0.000000	1.953768	0.000000
C 	-0.213544	2.619725	-1.239680
C 	0.851578	3.076659	-2.024814
C 	2.136913	2.909923	-1.536736
C 	3.316960	3.027709	-2.444424
H 	4.642258	-1.453976	0.193301
H 	5.012935	1.023062	-0.108003
H 	-0.859201	2.046010	0.679924
H 	-1.226987	2.751286	-1.610135
H 	0.655109	3.427222	-3.033634
H 	3.133284	3.770276	-3.227639
H 	4.201325	3.349859	-1.886284
H 	3.529171	2.066046	-2.924210
C 	-0.034719	-1.095901	2.819107
N 	0.000000	-0.000002	1.953768
N 	0.071669	1.059163	2.786227
N 	0.151401	0.634317	4.050498
C 	0.090858	-0.727340	4.128731
C 	-0.068521	-2.396621	2.203958
N 	0.688262	-2.272756	1.104841
C 	0.000000	-1.953768	0.000000
C 	-0.998531	-2.923703	-0.196139
C 	-1.622684	-3.543928	0.903117
C 	-1.235378	-3.136416	2.178380
C 	-2.171733	-3.246770	3.337162
H 	0.263690	1.320543	4.791090
H 	0.150114	-1.260486	5.059886
H 	0.577516	-1.879449	-0.939060
H 	-1.329237	-3.144955	-1.208635
H 	-2.512154	-4.143217	0.737153
H 	-2.924872	-4.022633	3.166407
H 	-1.627707	-3.502094	4.250794
H 	-2.697001	-2.296453	3.487166
C 	-1.097618	0.037346	-2.822989
N 	-0.000002	0.000000	-1.953768
N 	1.079565	-0.026409	-2.762524
N 	0.656447	0.161946	-4.030505
C 	-0.701179	0.179191	-4.124205
C 	-2.404509	0.050338	-2.218686
N 	-2.272120	0.735922	-1.070621
C 	-1.953768	0.000000	0.000000
C 	-2.951878	-0.984415	0.124879
C 	-3.587160	-1.537033	-1.006876
C 	-3.191748	-1.083705	-2.257925
C 	-3.396643	-1.905180	-3.486632
H 	1.347575	0.284102	-4.762051
H 	-1.227191	0.333382	-5.054029
H 	-1.907265	0.514998	0.975471
H 	-3.218464	-1.341867	1.115090
H 	-4.227507	-2.405692	-0.887851
H 	-4.229186	-2.605577	-3.361452
H 	-3.629724	-1.265877	-4.343900
H 	-2.495665	-2.487763	-3.710535
