64
04/17/2021 00:47, XYZ structure generated by mol3D Class, molSimplify
Fe 	0.000000	0.000000	0.000000
N 	2.009184	0.000004	0.000000
C 	2.321772	1.251775	-0.488196
N 	3.569905	1.589471	-0.968241
C 	4.464949	0.590669	-0.999173
C 	4.215418	-0.664000	-0.461081
C 	2.940515	-0.965834	0.083577
N 	2.781518	-2.257359	0.621775
C 	1.190961	2.251996	-0.677431
N 	0.000000	2.009184	0.000000
C 	-0.976710	2.957342	-0.068938
C 	-0.890685	4.099307	-0.834882
C 	0.246144	4.274871	-1.612358
C 	1.295434	3.351005	-1.537158
H 	5.391358	0.807211	-1.531710
H 	4.986878	-1.427910	-0.517263
H 	3.487742	-2.503415	1.311655
H 	1.838142	-2.389979	0.981283
H 	-1.844394	2.761767	0.556348
H 	-1.697953	4.824240	-0.832792
H 	0.316693	5.138952	-2.269263
H 	2.168301	3.492749	-2.167132
N 	0.000000	-0.000004	2.009184
C 	-0.427304	-1.276238	2.351181
N 	-0.799408	-1.661410	3.594184
C 	-0.782350	-0.706232	4.548963
C 	-0.384470	0.573908	4.336057
C 	0.002711	0.873730	3.032456
N 	0.400456	2.196271	2.779479
C 	-0.489981	-2.343063	1.270614
N 	0.000000	-2.009184	0.000000
C 	-0.028653	-3.004183	-0.932203
C 	-0.490746	-4.287029	-0.705302
C 	-0.966752	-4.599793	0.556440
C 	-0.961432	-3.624609	1.555542
H 	-1.151088	-1.022780	5.521015
H 	-0.395652	1.322582	5.116171
H 	1.175804	2.517258	3.342628
H 	0.545080	2.266184	1.774500
H 	0.349697	-2.730023	-1.913534
H 	-0.487924	-5.025538	-1.498712
H 	-1.340572	-5.595099	0.775221
H 	-1.327752	-3.874173	2.546450
N 	-0.000004	0.000000	-2.009184
C 	-1.331564	-0.242544	-2.352410
N 	-1.789474	-0.502781	-3.608910
C 	-0.909761	-0.480643	-4.608661
C 	0.414209	-0.226147	-4.406707
C 	0.815729	-0.003866	-3.097586
N 	2.199767	0.014844	-2.862506
C 	-2.385771	-0.324618	-1.285224
N 	-2.009184	0.000000	0.000000
C 	-3.012204	0.013494	0.923533
C 	-4.323154	-0.369338	0.689400
C 	-4.664479	-0.765137	-0.591620
C 	-3.695259	-0.729512	-1.589342
H 	-1.306287	-0.699836	-5.595413
H 	1.106761	-0.219627	-5.238377
H 	2.694504	0.554839	-3.571584
H 	2.550097	-0.938187	-2.847546
H 	-2.720697	0.349069	1.915896
H 	-5.056292	-0.358136	1.487830
H 	-5.678052	-1.078512	-0.822381
H 	-3.965214	-1.018611	-2.600928
