61
11/12/2021 13:57, XYZ structure generated by mol3D Class, molSimplify
Fe 	0.000000	0.000000	0.000000
C 	2.746405	1.052389	-0.194421
N 	1.931330	-0.061626	0.000000
N 	2.626281	-1.203427	-0.000323
N 	3.869942	-0.801693	-0.162447
C 	4.011828	0.555598	-0.329752
C 	2.204598	2.394195	-0.260534
N 	1.147385	2.333144	0.564207
C 	0.000000	1.932313	0.000000
C 	-0.212017	2.646147	-1.255078
C 	0.878856	3.044582	-2.055639
C 	2.149062	2.881027	-1.556201
C 	-1.557540	3.113005	-1.771373
H 	4.609225	-1.503994	-0.148683
H 	4.988771	0.964516	-0.492542
H 	-0.844186	2.076792	0.691321
H 	0.710996	3.397399	-3.069480
H 	3.007848	2.944147	-2.212969
H 	-1.822551	2.592580	-2.696110
H 	-2.359734	2.994538	-1.032285
H 	-1.521653	4.178233	-2.009715
C 	-0.032831	-1.126408	2.797154
N 	0.000000	-0.000017	1.932313
N 	-0.035080	1.049628	2.777446
N 	-0.063314	0.610012	4.042465
C 	-0.083055	-0.749237	4.112695
C 	0.028727	-2.432092	2.183598
N 	0.731403	-2.250727	1.081781
C 	0.000000	-1.932313	0.000000
C 	-0.916320	-2.968191	-0.261935
C 	-1.446814	-3.670300	0.825821
C 	-1.037222	-3.308474	2.117245
C 	-1.103885	-3.408493	-1.690785
H 	-0.068085	1.298717	4.788469
H 	-0.103552	-1.285054	5.048166
H 	0.593469	-1.820424	-0.928851
H 	-2.292550	-4.334676	0.674926
H 	-1.620194	-3.571862	2.988861
H 	-1.464661	-2.609053	-2.325938
H 	-0.141305	-3.696612	-2.128840
H 	-1.804567	-4.237939	-1.772556
C 	-1.130388	-0.132794	-2.788014
N 	-0.000016	0.000000	-1.932313
N 	1.067999	-0.081888	-2.753424
N 	0.617599	-0.150925	-4.022629
C 	-0.742042	-0.214189	-4.098241
C 	-2.445145	-0.066178	-2.178928
N 	-2.285323	0.666538	-1.091582
C 	-1.932313	0.000000	0.000000
C 	-2.946857	-0.942099	0.280954
C 	-3.654540	-1.520042	-0.793040
C 	-3.323358	-1.119493	-2.092476
C 	-3.382263	-1.129060	1.713179
H 	1.295356	-0.133510	-4.776717
H 	-1.272362	-0.258133	-5.034592
H 	-1.863187	0.608371	0.920073
H 	-4.353558	-2.331221	-0.614400
H 	-3.638605	-1.694730	-2.951977
H 	-2.553051	-1.397953	2.358641
H 	-3.762175	-0.186493	2.117672
H 	-4.141857	-1.904287	1.823971
