49
11/12/2021 13:56, XYZ structure generated by mol3D Class, molSimplify
Fe 	0.000000	0.000000	0.000000
C 	3.020301	-0.202907	-0.819267
N 	3.350931	0.273687	-2.077264
N 	4.490301	-0.297642	-2.441464
N 	4.807880	-1.075523	-1.411240
N 	3.970494	-1.060197	-0.362845
C 	2.013819	0.488559	0.000000
N 	1.255048	1.570888	-0.642655
C 	0.000000	2.072235	0.000000
C 	0.242224	2.470231	1.293597
C 	1.485442	2.052585	1.855335
C 	2.334273	1.029950	1.239838
H 	5.678450	-1.613150	-1.407492
H 	-0.707733	2.601296	-0.634720
H 	-0.481224	3.049258	1.853365
H 	1.731619	2.387597	2.862447
H 	3.200709	0.663153	1.782618
C 	0.647129	-0.072060	3.379531
N 	1.835571	-0.649318	3.786299
N 	2.126799	-0.139650	4.972226
N 	1.093934	0.669013	5.256641
N 	0.132380	0.745208	4.332144
C 	0.000000	-0.372565	2.038468
N 	0.721704	-1.491282	1.201420
C 	0.000000	-2.072235	0.000000
C 	-1.066352	-2.721458	0.619481
C 	-1.707830	-2.123320	1.783351
C 	-1.276472	-0.878218	2.363989
H 	1.080393	1.222099	6.111922
H 	0.626456	-2.564772	-0.738310
H 	-1.518809	-3.600278	0.172358
H 	-2.650670	-2.544905	2.128722
H 	-1.906642	-0.369903	3.091531
C 	0.288727	0.816143	-3.151866
N 	-0.146448	2.089826	-3.457016
N 	0.491166	2.462490	-4.559536
N 	1.271169	1.417734	-4.857704
N 	1.146918	0.338300	-4.081789
C 	-0.282884	0.000000	-2.052835
N 	-1.514544	0.662388	-1.232874
C 	-2.072235	0.000000	0.000000
C 	-2.647056	-1.065906	-0.703491
C 	-1.972849	-1.695203	-1.925241
C 	-0.720129	-1.240286	-2.463276
H 	1.907119	1.441715	-5.649863
H 	-2.638187	0.603658	0.698063
H 	-3.539557	-1.554018	-0.358419
H 	-2.388833	-2.616593	-2.306670
H 	-0.151581	-1.835664	-3.186821
