55
11/12/2021 13:56, XYZ structure generated by mol3D Class, molSimplify
Fe 	0.000000	0.000000	0.000000
N 	3.659912	1.443739	-0.007319
C 	2.306762	1.325578	-0.008216
N 	1.948899	0.000019	0.000000
O 	2.974753	-0.814104	0.001452
C 	4.011157	0.157217	-0.004007
N 	5.291591	-0.211447	-0.008313
C 	1.309508	2.391704	-0.008806
N 	0.000000	1.948899	0.000000
C 	-0.945765	2.931398	0.016756
C 	-0.671446	4.287880	0.011776
C 	0.658038	4.692785	-0.003861
C 	1.671339	3.735040	-0.011926
H 	5.627680	-1.148735	0.179990
H 	5.992498	0.517105	0.109264
H 	-1.976073	2.587657	0.035166
H 	-1.482395	5.009554	0.021857
H 	0.899196	5.753220	-0.006571
H 	2.710815	4.046435	-0.019167
N 	-0.027421	-1.527700	3.679624
C 	-0.050443	-1.314757	2.323842
N 	0.000000	-0.000017	1.948899
O 	-0.012025	0.658786	3.193450
C 	-0.037643	-0.311543	4.153401
N 	-0.035268	0.072256	5.429592
C 	-0.046760	-2.390835	1.315465
N 	0.000000	-1.948899	0.000000
C 	0.002120	-2.945137	-0.938343
C 	0.006230	-4.300085	-0.659353
C 	0.000515	-4.694939	0.672853
C 	-0.031749	-3.732179	1.681526
H 	0.199156	1.025637	5.675227
H 	0.175566	-0.622677	6.136725
H 	-0.001018	-2.611439	-1.972419
H 	0.013745	-5.026277	-1.464333
H 	0.007902	-5.752561	0.924029
H 	-0.044588	-4.030841	2.725023
N 	-1.532295	-0.034448	-3.677741
C 	-1.318430	-0.008849	-2.318858
N 	-0.000015	0.000000	-1.948899
O 	0.654195	-0.010898	-3.193704
C 	-0.318617	-0.036822	-4.150675
N 	0.068089	-0.063154	-5.428398
C 	-2.393451	-0.020834	-1.309541
N 	-1.948899	0.000000	0.000000
C 	-2.938869	0.008855	0.941014
C 	-4.294884	0.007751	0.662413
C 	-4.692582	-0.004646	-0.669390
C 	-3.729472	-0.016931	-1.673661
H 	1.000008	0.253055	-5.663785
H 	-0.636945	0.181784	-6.116008
H 	-2.602968	0.035094	1.974511
H 	-5.019521	0.020630	1.468986
H 	-5.750273	0.000419	-0.918105
H 	-4.028662	-0.027249	-2.720567
