64
11/12/2021 13:57, XYZ structure generated by mol3D Class, molSimplify
Fe 	0.000000	0.000000	0.000000
N 	2.009184	0.000015	0.000000
C 	2.297957	1.212269	0.584142
N 	3.474675	1.476653	1.236639
C 	4.337060	0.459139	1.331834
C 	4.115848	-0.761693	0.720428
C 	2.919601	-0.999331	0.017487
N 	2.833255	-2.207555	-0.694115
C 	1.266457	2.319094	0.504019
N 	0.000000	2.009184	0.000000
C 	-0.919530	3.013433	-0.088454
C 	-0.737846	4.266352	0.468612
C 	0.480895	4.541435	1.082598
C 	1.503450	3.581886	1.070323
H 	5.237867	0.658498	1.912235
H 	4.894624	-1.526871	0.774537
H 	3.658888	-2.444005	-1.236319
H 	1.981749	-2.227658	-1.247387
H 	-1.860093	2.735183	-0.557302
H 	-1.550113	4.986486	0.482708
H 	0.616933	5.476263	1.623449
H 	2.420337	3.786560	1.618375
N 	0.000000	-0.000014	2.009184
C 	-0.309427	-1.318704	2.345104
N 	-0.663090	-1.784543	3.584216
C 	-0.682667	-0.927581	4.601882
C 	-0.381485	0.384422	4.438505
C 	-0.154977	0.793823	3.129497
N 	-0.172391	2.184714	2.989012
C 	-0.349026	-2.381589	1.278323
N 	0.000000	-2.009184	0.000000
C 	-0.129723	-3.010321	-0.932120
C 	-0.466994	-4.331711	-0.688582
C 	-0.803194	-4.672704	0.612287
C 	-0.764186	-3.687398	1.596467
H 	-1.017204	-1.309955	5.559381
H 	-0.419636	1.084985	5.263294
H 	-0.802030	2.665691	3.619004
H 	-0.496719	2.297900	2.031327
H 	0.095161	-2.721647	-1.959022
H 	-0.471481	-5.061751	-1.481527
H 	-1.105360	-5.687287	0.852817
H 	-1.071950	-3.950940	2.604697
N 	-0.000014	0.000000	-2.009184
C 	-1.316533	-0.285377	-2.369188
N 	-1.699372	-0.692082	-3.597565
C 	-0.759439	-0.750055	-4.549598
C 	0.549566	-0.425569	-4.329535
C 	0.864105	-0.005223	-3.056252
N 	2.172187	0.461744	-2.870660
C 	-2.387183	-0.286428	-1.305985
N 	-2.009184	0.000000	0.000000
C 	-3.018601	0.025945	0.913943
C 	-4.345838	-0.265531	0.650122
C 	-4.697726	-0.586769	-0.648855
C 	-3.716194	-0.588939	-1.635321
H 	-1.100417	-1.043862	-5.540867
H 	1.275116	-0.416288	-5.130670
H 	2.892238	-0.219922	-3.079099
H 	2.267260	1.008604	-2.037091
H 	-2.720333	0.294827	1.921073
H 	-5.084220	-0.248033	1.443756
H 	-5.725482	-0.834074	-0.898143
H 	-3.989955	-0.834129	-2.658589
