
 OpenBabel05032121103D

 32 33  0  0  0  0  0  0  0  0999 V2000
   -5.3658    8.0920    0.6424 C   0  0  0  0  0  0  0  0  0  0  0  0
   -3.9889    8.0674    0.8613 C   0  0  0  0  0  0  0  0  0  0  0  0
   -3.3126    6.8493    1.0145 C   0  0  0  0  0  0  0  0  0  0  0  0
   -6.1126    6.8939    0.5695 C   0  0  0  0  0  0  0  0  0  0  0  0
   -5.4146    5.6749    0.7261 C   0  0  0  0  0  0  0  0  0  0  0  0
   -4.0371    5.6577    0.9448 C   0  0  0  0  0  0  0  0  0  0  0  0
   -1.8575    6.8041    1.2466 C   0  0  0  0  0  0  0  0  0  0  0  0
   -0.9922    7.8741    1.3431 C   0  0  0  0  0  0  0  0  0  0  0  0
    0.2240    7.3529    1.5554 N   0  0  0  0  0  0  0  0  0  0  0  0
   -1.1399    5.6711    1.4031 N   0  0  0  0  0  0  0  0  0  0  0  0
    0.1224    6.0348    1.5892 N   0  0  0  0  0  0  0  0  0  0  0  0
   -5.8235    9.0633    0.5332 H   0  0  0  0  0  0  0  0  0  0  0  0
   -3.4612    9.0095    0.9093 H   0  0  0  0  0  0  0  0  0  0  0  0
   -5.9283    4.7250    0.6806 H   0  0  0  0  0  0  0  0  0  0  0  0
   -1.2125    8.9301    1.2683 H   0  0  0  0  0  0  0  0  0  0  0  0
    1.4591    8.1027    1.7226 C   0  0  0  0  0  0  0  0  0  0  0  0
    2.3109    7.4098    1.8837 H   0  0  0  0  0  0  0  0  0  0  0  0
    1.3671    8.7776    2.5996 H   0  0  0  0  0  0  0  0  0  0  0  0
    1.6500    8.7100    0.8128 H   0  0  0  0  0  0  0  0  0  0  0  0
   -7.6337    6.8789    0.3292 C   0  0  0  0  0  0  0  0  0  0  0  0
   -8.2350    8.2975    0.1803 C   0  0  0  0  0  0  0  0  0  0  0  0
   -8.3310    6.1959    1.5248 C   0  0  0  0  0  0  0  0  0  0  0  0
   -7.9360    6.1016   -0.9695 C   0  0  0  0  0  0  0  0  0  0  0  0
   -7.4330    6.5871   -1.8342 H   0  0  0  0  0  0  0  0  0  0  0  0
   -9.0288    6.0766   -1.1695 H   0  0  0  0  0  0  0  0  0  0  0  0
   -7.5833    5.0511   -0.9107 H   0  0  0  0  0  0  0  0  0  0  0  0
   -8.1136    6.7496    2.4643 H   0  0  0  0  0  0  0  0  0  0  0  0
   -7.9896    5.1481    1.6553 H   0  0  0  0  0  0  0  0  0  0  0  0
   -9.4323    6.1730    1.3792 H   0  0  0  0  0  0  0  0  0  0  0  0
   -8.0694    8.8977    1.1014 H   0  0  0  0  0  0  0  0  0  0  0  0
   -9.3318    8.2451    0.0086 H   0  0  0  0  0  0  0  0  0  0  0  0
   -7.7863    8.8301   -0.6863 H   0  0  0  0  0  0  0  0  0  0  0  0
  1  2  1  0  0  0  0
  2 13  1  0  0  0  0
  2  3  2  0  0  0  0
  3  7  1  0  0  0  0
  4  1  2  0  0  0  0
  4  5  1  0  0  0  0
  5  6  2  0  0  0  0
  6  3  1  0  0  0  0
  7  8  2  0  0  0  0
  7 10  1  0  0  0  0
  8  9  1  0  0  0  0
  9 11  1  0  0  0  0
  9 16  1  0  0  0  0
 10 11  2  0  0  0  0
 12  1  1  0  0  0  0
 14  5  1  0  0  0  0
 15  8  1  0  0  0  0
 16 17  1  0  0  0  0
 16 18  1  0  0  0  0
 19 16  1  0  0  0  0
 20  4  1  0  0  0  0
 20 22  1  0  0  0  0
 21 20  1  0  0  0  0
 21 30  1  0  0  0  0
 22 28  1  0  0  0  0
 22 27  1  0  0  0  0
 23 26  1  0  0  0  0
 23 20  1  0  0  0  0
 24 23  1  0  0  0  0
 25 23  1  0  0  0  0
 29 22  1  0  0  0  0
 31 21  1  0  0  0  0
 32 21  1  0  0  0  0
M  CHG  1   6  -1
M  END
