
 OpenBabel05032121123D

 23 24  0  0  0  0  0  0  0  0999 V2000
    4.2804    3.1932   -0.5570 C   0  0  0  0  0  0  0  0  0  0  0  0
    4.8980    4.3936   -0.9146 C   0  0  0  0  0  0  0  0  0  0  0  0
    6.2635    4.4212   -1.2201 C   0  0  0  0  0  0  0  0  0  0  0  0
    7.0326    3.2374   -1.1706 C   0  0  0  0  0  0  0  0  0  0  0  0
    5.0279    2.0159   -0.5040 C   0  0  0  0  0  0  0  0  0  0  0  0
    6.3901    2.0412   -0.8083 C   0  0  0  0  0  0  0  0  0  0  0  0
    8.4903    3.1918   -1.4829 C   0  0  0  0  0  0  0  0  0  0  0  0
    9.2324    4.3305   -1.8565 C   0  0  0  0  0  0  0  0  0  0  0  0
   10.5957    4.2084   -2.1338 C   0  0  0  0  0  0  0  0  0  0  0  0
   11.2245    2.9614   -2.0418 C   0  0  0  0  0  0  0  0  0  0  0  0
    9.1358    1.9923   -1.4033 N   0  0  0  0  0  0  0  0  0  0  0  0
   10.4608    1.8512   -1.6687 C   0  0  0  0  0  0  0  0  0  0  0  0
    4.3183    5.3070   -0.9558 H   0  0  0  0  0  0  0  0  0  0  0  0
    6.6925    5.3730   -1.4903 H   0  0  0  0  0  0  0  0  0  0  0  0
    2.9573    3.1714   -0.2619 F   0  0  0  0  0  0  0  0  0  0  0  0
    4.5567    1.0821   -0.2278 H   0  0  0  0  0  0  0  0  0  0  0  0
    8.7884    5.3098   -1.9397 H   0  0  0  0  0  0  0  0  0  0  0  0
   11.1584    5.0884   -2.4202 H   0  0  0  0  0  0  0  0  0  0  0  0
   10.9174    0.8729   -1.5885 H   0  0  0  0  0  0  0  0  0  0  0  0
   12.6868    2.8047   -2.3346 C   0  0  0  0  0  0  0  0  0  0  0  0
   13.1522    3.7734   -2.6159 H   0  0  0  0  0  0  0  0  0  0  0  0
   12.8247    2.0915   -3.1744 H   0  0  0  0  0  0  0  0  0  0  0  0
   13.2072    2.4127   -1.4355 H   0  0  0  0  0  0  0  0  0  0  0  0
  1  5  1  0  0  0  0
  1 15  1  0  0  0  0
  2  1  2  0  0  0  0
  3  4  2  0  0  0  0
  3  2  1  0  0  0  0
  4  6  1  0  0  0  0
  5 16  1  0  0  0  0
  6  5  2  0  0  0  0
  7 11  1  0  0  0  0
  7  4  1  0  0  0  0
  8  7  2  0  0  0  0
  9 10  2  0  0  0  0
  9  8  1  0  0  0  0
 10 12  1  0  0  0  0
 12 19  1  0  0  0  0
 12 11  2  0  0  0  0
 13  2  1  0  0  0  0
 14  3  1  0  0  0  0
 17  8  1  0  0  0  0
 18  9  1  0  0  0  0
 20 10  1  0  0  0  0
 20 23  1  0  0  0  0
 21 20  1  0  0  0  0
 22 20  1  0  0  0  0
M  CHG  1   6  -1
M  END
