
 OpenBabel05032121053D

 26 28  0  0  0  0  0  0  0  0999 V2000
   -5.3744    2.8186   -0.0000 C   0  0  0  0  0  0  0  0  0  0  0  0
   -3.9834    2.7072   -0.0000 C   0  0  0  0  0  0  0  0  0  0  0  0
   -6.1730    1.6640    0.0000 C   0  0  0  0  0  0  0  0  0  0  0  0
   -5.5665    0.4000    0.0000 C   0  0  0  0  0  0  0  0  0  0  0  0
   -4.1780    0.2921    0.0000 C   0  0  0  0  0  0  0  0  0  0  0  0
   -3.3814    1.4407   -0.0000 C   0  0  0  0  0  0  0  0  0  0  0  0
   -1.9243    1.3112   -0.0000 C   0  0  0  0  0  0  0  0  0  0  0  0
   -1.0992    2.3446   -0.0000 O   0  0  0  0  0  0  0  0  0  0  0  0
    0.1034    1.8343   -0.0000 C   0  0  0  0  0  0  0  0  0  0  0  0
   -1.2807    0.1158   -0.0000 N   0  0  0  0  0  0  0  0  0  0  0  0
    0.0082    0.4753   -0.0000 C   0  0  0  0  0  0  0  0  0  0  0  0
    1.3260    2.4918   -0.0000 C   0  0  0  0  0  0  0  0  0  0  0  0
    2.4873    1.6963    0.0000 C   0  0  0  0  0  0  0  0  0  0  0  0
    2.3897    0.2838    0.0000 C   0  0  0  0  0  0  0  0  0  0  0  0
    1.1305   -0.3450    0.0000 C   0  0  0  0  0  0  0  0  0  0  0  0
    1.3788    3.5728   -0.0000 H   0  0  0  0  0  0  0  0  0  0  0  0
    3.4590    2.1701    0.0000 H   0  0  0  0  0  0  0  0  0  0  0  0
    1.0355   -1.4232    0.0000 H   0  0  0  0  0  0  0  0  0  0  0  0
    3.2875   -0.3185    0.0000 H   0  0  0  0  0  0  0  0  0  0  0  0
   -3.3802    3.6069   -0.0000 H   0  0  0  0  0  0  0  0  0  0  0  0
   -5.8235    3.8037   -0.0000 H   0  0  0  0  0  0  0  0  0  0  0  0
   -7.6636    1.7637    0.0000 C   0  0  0  0  0  0  0  0  0  0  0  0
   -6.1652   -0.5014    0.0000 H   0  0  0  0  0  0  0  0  0  0  0  0
   -7.9985    2.8222    0.0000 H   0  0  0  0  0  0  0  0  0  0  0  0
   -8.0626    1.2625    0.9064 H   0  0  0  0  0  0  0  0  0  0  0  0
   -8.0626    1.2625   -0.9064 H   0  0  0  0  0  0  0  0  0  0  0  0
  1 21  1  0  0  0  0
  2  6  2  0  0  0  0
  2  1  1  0  0  0  0
  2 20  1  0  0  0  0
  3  4  1  0  0  0  0
  3  1  2  0  0  0  0
  3 22  1  0  0  0  0
  4  5  2  0  0  0  0
  4 23  1  0  0  0  0
  5  6  1  0  0  0  0
  6  7  1  0  0  0  0
  7  8  1  0  0  0  0
  7 10  2  0  0  0  0
  8  9  1  0  0  0  0
  9 11  2  0  0  0  0
  9 12  1  0  0  0  0
 10 11  1  0  0  0  0
 11 15  1  0  0  0  0
 12 13  2  0  0  0  0
 12 16  1  0  0  0  0
 13 17  1  0  0  0  0
 13 14  1  0  0  0  0
 15 18  1  0  0  0  0
 15 14  2  0  0  0  0
 19 14  1  0  0  0  0
 22 24  1  0  0  0  0
 22 25  1  0  0  0  0
 26 22  1  0  0  0  0
M  CHG  1   5  -1
M  END
