
 OpenBabel05032121053D

 27 29  0  0  0  0  0  0  0  0999 V2000
   -5.7767    2.8569   -0.0129 C   0  0  0  0  0  0  0  0  0  0  0  0
   -4.3772    2.8616   -0.0191 C   0  0  0  0  0  0  0  0  0  0  0  0
   -6.4864    1.6362    0.0167 C   0  0  0  0  0  0  0  0  0  0  0  0
   -5.7612    0.4380    0.0396 C   0  0  0  0  0  0  0  0  0  0  0  0
   -4.3657    0.4472    0.0332 C   0  0  0  0  0  0  0  0  0  0  0  0
   -3.6595    1.6546    0.0038 C   0  0  0  0  0  0  0  0  0  0  0  0
   -2.1827    1.6294   -0.0022 C   0  0  0  0  0  0  0  0  0  0  0  0
   -1.1735    2.9972   -0.0364 S   0  0  0  0  0  0  0  0  0  0  0  0
    0.2199    2.0638   -0.0226 C   0  0  0  0  0  0  0  0  0  0  0  0
   -1.4650    0.4768    0.0194 N   0  0  0  0  0  0  0  0  0  0  0  0
   -0.1307    0.7240    0.0080 C   0  0  0  0  0  0  0  0  0  0  0  0
    1.5488    2.4804   -0.0376 C   0  0  0  0  0  0  0  0  0  0  0  0
    2.5501    1.4964   -0.0210 C   0  0  0  0  0  0  0  0  0  0  0  0
    2.2053    0.1303    0.0101 C   0  0  0  0  0  0  0  0  0  0  0  0
    0.8560   -0.2635    0.0248 C   0  0  0  0  0  0  0  0  0  0  0  0
    1.8034    3.5320   -0.0615 H   0  0  0  0  0  0  0  0  0  0  0  0
    3.5920    1.7888   -0.0321 H   0  0  0  0  0  0  0  0  0  0  0  0
    0.5897   -1.3124    0.0486 H   0  0  0  0  0  0  0  0  0  0  0  0
    2.9844   -0.6207    0.0227 H   0  0  0  0  0  0  0  0  0  0  0  0
   -3.8617    3.8129   -0.0420 H   0  0  0  0  0  0  0  0  0  0  0  0
   -6.2720    3.8140   -0.0314 H   0  0  0  0  0  0  0  0  0  0  0  0
   -7.8443    1.5455    0.0247 O   0  0  0  0  0  0  0  0  0  0  0  0
   -6.2812   -0.5110    0.0625 H   0  0  0  0  0  0  0  0  0  0  0  0
   -8.7894    2.5550    0.0050 C   0  0  0  0  0  0  0  0  0  0  0  0
   -9.4247    2.4705    0.9106 H   0  0  0  0  0  0  0  0  0  0  0  0
   -9.4332    2.4274   -0.8893 H   0  0  0  0  0  0  0  0  0  0  0  0
   -8.3639    3.5728   -0.0215 H   0  0  0  0  0  0  0  0  0  0  0  0
  1  3  1  0  0  0  0
  2  1  2  0  0  0  0
  2  6  1  0  0  0  0
  3 22  1  0  0  0  0
  3  4  2  0  0  0  0
  4 23  1  0  0  0  0
  5  4  1  0  0  0  0
  6  5  2  0  0  0  0
  7  6  1  0  0  0  0
  7 10  2  0  0  0  0
  8  9  1  0  0  0  0
  8  7  1  0  0  0  0
  9 11  1  0  0  0  0
 11 10  1  0  0  0  0
 11 15  2  0  0  0  0
 12  9  2  0  0  0  0
 12 13  1  0  0  0  0
 13 14  2  0  0  0  0
 14 19  1  0  0  0  0
 14 15  1  0  0  0  0
 15 18  1  0  0  0  0
 16 12  1  0  0  0  0
 17 13  1  0  0  0  0
 20  2  1  0  0  0  0
 21  1  1  0  0  0  0
 24 22  1  0  0  0  0
 24 25  1  0  0  0  0
 26 24  1  0  0  0  0
 27 24  1  0  0  0  0
M  CHG  1   5  -1
M  END
