
 OpenBabel05032121053D

 23 25  0  0  0  0  0  0  0  0999 V2000
   -5.6094    2.8134   -0.0134 C   0  0  0  0  0  0  0  0  0  0  0  0
   -4.2136    2.7158   -0.0174 C   0  0  0  0  0  0  0  0  0  0  0  0
   -6.3933    1.6557    0.0154 C   0  0  0  0  0  0  0  0  0  0  0  0
   -5.7814    0.3989    0.0402 C   0  0  0  0  0  0  0  0  0  0  0  0
   -4.3876    0.3004    0.0362 C   0  0  0  0  0  0  0  0  0  0  0  0
   -3.5937    1.4552    0.0074 C   0  0  0  0  0  0  0  0  0  0  0  0
   -2.1256    1.3367    0.0035 C   0  0  0  0  0  0  0  0  0  0  0  0
   -1.3035    2.3762   -0.0229 O   0  0  0  0  0  0  0  0  0  0  0  0
   -0.0946    1.8753   -0.0173 C   0  0  0  0  0  0  0  0  0  0  0  0
   -1.4685    0.1480    0.0266 N   0  0  0  0  0  0  0  0  0  0  0  0
   -0.1791    0.5155    0.0128 C   0  0  0  0  0  0  0  0  0  0  0  0
    1.1285    2.5399   -0.0373 C   0  0  0  0  0  0  0  0  0  0  0  0
    2.2962    1.7526   -0.0252 C   0  0  0  0  0  0  0  0  0  0  0  0
    2.2085    0.3408    0.0060 C   0  0  0  0  0  0  0  0  0  0  0  0
    0.9523   -0.2959    0.0255 C   0  0  0  0  0  0  0  0  0  0  0  0
    1.1797    3.6205   -0.0611 H   0  0  0  0  0  0  0  0  0  0  0  0
    3.2668    2.2309   -0.0400 H   0  0  0  0  0  0  0  0  0  0  0  0
    0.8705   -1.3748    0.0495 H   0  0  0  0  0  0  0  0  0  0  0  0
    3.1124   -0.2542    0.0150 H   0  0  0  0  0  0  0  0  0  0  0  0
   -3.6215    3.6223   -0.0399 H   0  0  0  0  0  0  0  0  0  0  0  0
   -6.0821    3.7870   -0.0326 H   0  0  0  0  0  0  0  0  0  0  0  0
   -7.7457    1.7519    0.0193 F   0  0  0  0  0  0  0  0  0  0  0  0
   -6.3828   -0.5000    0.0625 H   0  0  0  0  0  0  0  0  0  0  0  0
  1  3  1  0  0  0  0
  2  1  2  0  0  0  0
  2  6  1  0  0  0  0
  3 22  1  0  0  0  0
  3  4  2  0  0  0  0
  4 23  1  0  0  0  0
  5  4  1  0  0  0  0
  6  5  2  0  0  0  0
  7  6  1  0  0  0  0
  7 10  2  0  0  0  0
  8  9  1  0  0  0  0
  8  7  1  0  0  0  0
  9 11  2  0  0  0  0
 11 15  1  0  0  0  0
 11 10  1  0  0  0  0
 12 13  2  0  0  0  0
 12  9  1  0  0  0  0
 13 14  1  0  0  0  0
 14 19  1  0  0  0  0
 14 15  2  0  0  0  0
 15 18  1  0  0  0  0
 16 12  1  0  0  0  0
 17 13  1  0  0  0  0
 20  2  1  0  0  0  0
 21  1  1  0  0  0  0
M  CHG  1   5  -1
M  END
