
 OpenBabel05032121053D

 23 25  0  0  0  0  0  0  0  0999 V2000
   -5.8117    2.7257   -0.0106 C   0  0  0  0  0  0  0  0  0  0  0  0
   -4.4138    2.7559   -0.0174 C   0  0  0  0  0  0  0  0  0  0  0  0
   -6.4874    1.5019    0.0192 C   0  0  0  0  0  0  0  0  0  0  0  0
   -5.7619    0.3064    0.0421 C   0  0  0  0  0  0  0  0  0  0  0  0
   -4.3643    0.3362    0.0353 C   0  0  0  0  0  0  0  0  0  0  0  0
   -3.6763    1.5578    0.0055 C   0  0  0  0  0  0  0  0  0  0  0  0
   -2.1988    1.5644   -0.0012 C   0  0  0  0  0  0  0  0  0  0  0  0
   -1.2276    2.9589   -0.0360 S   0  0  0  0  0  0  0  0  0  0  0  0
    0.1899    2.0660   -0.0227 C   0  0  0  0  0  0  0  0  0  0  0  0
   -1.4499    0.4313    0.0203 N   0  0  0  0  0  0  0  0  0  0  0  0
   -0.1219    0.7167    0.0081 C   0  0  0  0  0  0  0  0  0  0  0  0
    1.5048    2.5231   -0.0386 C   0  0  0  0  0  0  0  0  0  0  0  0
    2.5352    1.5706   -0.0223 C   0  0  0  0  0  0  0  0  0  0  0  0
    2.2322    0.1947    0.0091 C   0  0  0  0  0  0  0  0  0  0  0  0
    0.8950   -0.2405    0.0246 C   0  0  0  0  0  0  0  0  0  0  0  0
    1.7262    3.5822   -0.0627 H   0  0  0  0  0  0  0  0  0  0  0  0
    3.5676    1.8957   -0.0340 H   0  0  0  0  0  0  0  0  0  0  0  0
    0.6620   -1.2974    0.0487 H   0  0  0  0  0  0  0  0  0  0  0  0
    3.0347   -0.5314    0.0214 H   0  0  0  0  0  0  0  0  0  0  0  0
   -3.9163    3.7164   -0.0406 H   0  0  0  0  0  0  0  0  0  0  0  0
   -6.3675    3.6545   -0.0284 H   0  0  0  0  0  0  0  0  0  0  0  0
   -8.2412    1.4684    0.0277 Cl  0  0  0  0  0  0  0  0  0  0  0  0
   -6.2764   -0.6452    0.0652 H   0  0  0  0  0  0  0  0  0  0  0  0
  1  3  1  0  0  0  0
  2  1  2  0  0  0  0
  2  6  1  0  0  0  0
  3 22  1  0  0  0  0
  3  4  2  0  0  0  0
  4 23  1  0  0  0  0
  5  4  1  0  0  0  0
  6  5  2  0  0  0  0
  7  6  1  0  0  0  0
  7 10  2  0  0  0  0
  8  9  1  0  0  0  0
  8  7  1  0  0  0  0
  9 11  1  0  0  0  0
 11 10  1  0  0  0  0
 11 15  2  0  0  0  0
 12  9  2  0  0  0  0
 12 13  1  0  0  0  0
 13 14  2  0  0  0  0
 14 19  1  0  0  0  0
 14 15  1  0  0  0  0
 15 18  1  0  0  0  0
 16 12  1  0  0  0  0
 17 13  1  0  0  0  0
 20  2  1  0  0  0  0
 21  1  1  0  0  0  0
M  CHG  1   5  -1
M  END
