
 OpenBabel05032121063D

 23 25  0  0  0  0  0  0  0  0999 V2000
   -5.6434    2.7972   -0.0129 C   0  0  0  0  0  0  0  0  0  0  0  0
   -4.2402    2.7649   -0.0184 C   0  0  0  0  0  0  0  0  0  0  0  0
   -6.3761    1.6030    0.0165 C   0  0  0  0  0  0  0  0  0  0  0  0
   -5.7075    0.3770    0.0403 C   0  0  0  0  0  0  0  0  0  0  0  0
   -4.3156    0.3455    0.0348 C   0  0  0  0  0  0  0  0  0  0  0  0
   -3.5686    1.5298    0.0056 C   0  0  0  0  0  0  0  0  0  0  0  0
   -2.0984    1.4236    0.0014 C   0  0  0  0  0  0  0  0  0  0  0  0
   -1.2536    2.4476   -0.0247 O   0  0  0  0  0  0  0  0  0  0  0  0
   -0.0520    1.9142   -0.0184 C   0  0  0  0  0  0  0  0  0  0  0  0
   -1.4662    0.2230    0.0249 N   0  0  0  0  0  0  0  0  0  0  0  0
   -0.1734    0.5574    0.0119 C   0  0  0  0  0  0  0  0  0  0  0  0
    1.1968    2.5357   -0.0375 C   0  0  0  0  0  0  0  0  0  0  0  0
    2.3383    1.7052   -0.0244 C   0  0  0  0  0  0  0  0  0  0  0  0
    2.2019    0.2975    0.0070 C   0  0  0  0  0  0  0  0  0  0  0  0
    0.9265   -0.2923    0.0256 C   0  0  0  0  0  0  0  0  0  0  0  0
    1.2920    3.6132   -0.0615 H   0  0  0  0  0  0  0  0  0  0  0  0
    3.3273    2.1444   -0.0384 H   0  0  0  0  0  0  0  0  0  0  0  0
    0.8016   -1.3672    0.0496 H   0  0  0  0  0  0  0  0  0  0  0  0
    3.0815   -0.3332    0.0169 H   0  0  0  0  0  0  0  0  0  0  0  0
   -3.6887    3.6967   -0.0412 H   0  0  0  0  0  0  0  0  0  0  0  0
   -6.1624    3.7472   -0.0314 H   0  0  0  0  0  0  0  0  0  0  0  0
   -8.1298    1.6359    0.0235 Cl  0  0  0  0  0  0  0  0  0  0  0  0
   -6.2577   -0.5541    0.0631 H   0  0  0  0  0  0  0  0  0  0  0  0
  1  3  1  0  0  0  0
  2  1  2  0  0  0  0
  2  6  1  0  0  0  0
  3 22  1  0  0  0  0
  3  4  2  0  0  0  0
  4 23  1  0  0  0  0
  5  4  1  0  0  0  0
  6  5  2  0  0  0  0
  7  6  1  0  0  0  0
  7 10  2  0  0  0  0
  8  9  1  0  0  0  0
  8  7  1  0  0  0  0
  9 11  2  0  0  0  0
 11 10  1  0  0  0  0
 11 15  1  0  0  0  0
 12 13  2  0  0  0  0
 12  9  1  0  0  0  0
 13 14  1  0  0  0  0
 14 19  1  0  0  0  0
 14 15  2  0  0  0  0
 15 18  1  0  0  0  0
 16 12  1  0  0  0  0
 17 13  1  0  0  0  0
 20  2  1  0  0  0  0
 21  1  1  0  0  0  0
M  CHG  1   5  -1
M  END
