
 OpenBabel05032121063D

 26 28  0  0  0  0  0  0  0  0999 V2000
   -5.7881    2.7654   -0.0115 C   0  0  0  0  0  0  0  0  0  0  0  0
   -4.3941    2.7460   -0.0173 C   0  0  0  0  0  0  0  0  0  0  0  0
   -6.5170    1.5660    0.0179 C   0  0  0  0  0  0  0  0  0  0  0  0
   -5.8174    0.3460    0.0415 C   0  0  0  0  0  0  0  0  0  0  0  0
   -4.4162    0.3298    0.0356 C   0  0  0  0  0  0  0  0  0  0  0  0
   -3.6913    1.5295    0.0062 C   0  0  0  0  0  0  0  0  0  0  0  0
   -2.2114    1.5204   -0.0002 C   0  0  0  0  0  0  0  0  0  0  0  0
   -1.2504    2.9205   -0.0350 S   0  0  0  0  0  0  0  0  0  0  0  0
    0.1704    2.0454   -0.0222 C   0  0  0  0  0  0  0  0  0  0  0  0
   -1.4536    0.3913    0.0212 N   0  0  0  0  0  0  0  0  0  0  0  0
   -0.1253    0.6922    0.0087 C   0  0  0  0  0  0  0  0  0  0  0  0
    1.4753    2.5253   -0.0385 C   0  0  0  0  0  0  0  0  0  0  0  0
    2.5210    1.5924   -0.0227 C   0  0  0  0  0  0  0  0  0  0  0  0
    2.2409    0.2116    0.0087 C   0  0  0  0  0  0  0  0  0  0  0  0
    0.9095   -0.2480    0.0247 C   0  0  0  0  0  0  0  0  0  0  0  0
    1.6753    3.5888   -0.0626 H   0  0  0  0  0  0  0  0  0  0  0  0
    3.5465    1.9384   -0.0348 H   0  0  0  0  0  0  0  0  0  0  0  0
    0.6980   -1.3092    0.0488 H   0  0  0  0  0  0  0  0  0  0  0  0
    3.0578   -0.4981    0.0206 H   0  0  0  0  0  0  0  0  0  0  0  0
   -3.8711    3.6921   -0.0403 H   0  0  0  0  0  0  0  0  0  0  0  0
   -6.2884    3.7246   -0.0303 H   0  0  0  0  0  0  0  0  0  0  0  0
   -8.0258    1.5703    0.0245 C   0  0  0  0  0  0  0  0  0  0  0  0
   -6.3567   -0.5928    0.0644 H   0  0  0  0  0  0  0  0  0  0  0  0
   -8.5350    2.8582   -0.0014 F   0  0  0  0  0  0  0  0  0  0  0  0
   -8.4847    0.9415    1.1672 F   0  0  0  0  0  0  0  0  0  0  0  0
   -8.4947    0.8922   -1.0854 F   0  0  0  0  0  0  0  0  0  0  0  0
  1  3  1  0  0  0  0
  2  1  2  0  0  0  0
  2  6  1  0  0  0  0
  3 22  1  0  0  0  0
  3  4  2  0  0  0  0
  4 23  1  0  0  0  0
  5  4  1  0  0  0  0
  6  5  2  0  0  0  0
  7  6  1  0  0  0  0
  7 10  2  0  0  0  0
  8  9  1  0  0  0  0
  8  7  1  0  0  0  0
  9 11  2  0  0  0  0
 11 10  1  0  0  0  0
 11 15  1  0  0  0  0
 12 13  2  0  0  0  0
 12  9  1  0  0  0  0
 13 14  1  0  0  0  0
 14 19  1  0  0  0  0
 14 15  2  0  0  0  0
 15 18  1  0  0  0  0
 16 12  1  0  0  0  0
 17 13  1  0  0  0  0
 20  2  1  0  0  0  0
 21  1  1  0  0  0  0
 22 25  1  0  0  0  0
 24 22  1  0  0  0  0
 26 22  1  0  0  0  0
M  CHG  1   5  -1
M  END
