
 OpenBabel05032121063D

 26 28  0  0  0  0  0  0  0  0999 V2000
   -5.6835    2.8222   -0.0132 C   0  0  0  0  0  0  0  0  0  0  0  0
   -4.2764    2.8018   -0.0190 C   0  0  0  0  0  0  0  0  0  0  0  0
   -6.4178    1.6182    0.0163 C   0  0  0  0  0  0  0  0  0  0  0  0
   -5.7224    0.4022    0.0398 C   0  0  0  0  0  0  0  0  0  0  0  0
   -4.3308    0.3866    0.0340 C   0  0  0  0  0  0  0  0  0  0  0  0
   -3.5910    1.5738    0.0048 C   0  0  0  0  0  0  0  0  0  0  0  0
   -2.1149    1.4649    0.0006 C   0  0  0  0  0  0  0  0  0  0  0  0
   -1.2555    2.4785   -0.0254 O   0  0  0  0  0  0  0  0  0  0  0  0
   -0.0568    1.9290   -0.0187 C   0  0  0  0  0  0  0  0  0  0  0  0
   -1.4945    0.2571    0.0243 N   0  0  0  0  0  0  0  0  0  0  0  0
   -0.1983    0.5743    0.0116 C   0  0  0  0  0  0  0  0  0  0  0  0
    1.2052    2.5289   -0.0374 C   0  0  0  0  0  0  0  0  0  0  0  0
    2.3340    1.6783   -0.0238 C   0  0  0  0  0  0  0  0  0  0  0  0
    2.1737    0.2736    0.0076 C   0  0  0  0  0  0  0  0  0  0  0  0
    0.8889   -0.2934    0.0257 C   0  0  0  0  0  0  0  0  0  0  0  0
    1.3245    3.6041   -0.0614 H   0  0  0  0  0  0  0  0  0  0  0  0
    3.3320    2.0977   -0.0374 H   0  0  0  0  0  0  0  0  0  0  0  0
    0.7463   -1.3658    0.0498 H   0  0  0  0  0  0  0  0  0  0  0  0
    3.0425   -0.3729    0.0179 H   0  0  0  0  0  0  0  0  0  0  0  0
   -3.7339    3.7386   -0.0419 H   0  0  0  0  0  0  0  0  0  0  0  0
   -6.1945    3.7766   -0.0319 H   0  0  0  0  0  0  0  0  0  0  0  0
   -7.9277    1.5917    0.0236 C   0  0  0  0  0  0  0  0  0  0  0  0
   -6.2548   -0.5400    0.0628 H   0  0  0  0  0  0  0  0  0  0  0  0
   -8.4655    2.8662   -0.0019 F   0  0  0  0  0  0  0  0  0  0  0  0
   -8.3726    0.9486    1.1652 F   0  0  0  0  0  0  0  0  0  0  0  0
   -8.3826    0.8994   -1.0848 F   0  0  0  0  0  0  0  0  0  0  0  0
  1  3  1  0  0  0  0
  2  1  2  0  0  0  0
  2  6  1  0  0  0  0
  3 22  1  0  0  0  0
  3  4  2  0  0  0  0
  4 23  1  0  0  0  0
  5  4  1  0  0  0  0
  6  5  2  0  0  0  0
  7  6  1  0  0  0  0
  7 10  2  0  0  0  0
  8  9  1  0  0  0  0
  8  7  1  0  0  0  0
  9 11  2  0  0  0  0
 11 10  1  0  0  0  0
 11 15  1  0  0  0  0
 12 13  2  0  0  0  0
 12  9  1  0  0  0  0
 13 14  1  0  0  0  0
 14 19  1  0  0  0  0
 14 15  2  0  0  0  0
 15 18  1  0  0  0  0
 16 12  1  0  0  0  0
 17 13  1  0  0  0  0
 20  2  1  0  0  0  0
 21  1  1  0  0  0  0
 22 25  1  0  0  0  0
 24 22  1  0  0  0  0
 26 22  1  0  0  0  0
M  CHG  1   5  -1
M  END
