
 OpenBabel05032121063D

 23 24  0  0  0  0  0  0  0  0999 V2000
   -5.2145    2.3655    0.2082 C   0  0  0  0  0  0  0  0  0  0  0  0
   -4.5668    3.6107    0.2369 C   0  0  0  0  0  0  0  0  0  0  0  0
   -3.1672    3.6738    0.1946 C   0  0  0  0  0  0  0  0  0  0  0  0
   -5.4835    5.1095    0.3257 Cl  0  0  0  0  0  0  0  0  0  0  0  0
   -2.3944    2.4945    0.1231 C   0  0  0  0  0  0  0  0  0  0  0  0
   -4.4571    1.1942    0.1375 C   0  0  0  0  0  0  0  0  0  0  0  0
   -6.9681    2.2447    0.2595 Cl  0  0  0  0  0  0  0  0  0  0  0  0
   -3.0645    1.2615    0.0956 C   0  0  0  0  0  0  0  0  0  0  0  0
   -0.9032    2.4906    0.0753 C   0  0  0  0  0  0  0  0  0  0  0  0
   -0.1296    3.6689    0.0970 C   0  0  0  0  0  0  0  0  0  0  0  0
    1.2634    3.5834    0.0491 C   0  0  0  0  0  0  0  0  0  0  0  0
    1.8916    2.3360   -0.0201 C   0  0  0  0  0  0  0  0  0  0  0  0
   -0.2574    1.2905    0.0073 N   0  0  0  0  0  0  0  0  0  0  0  0
    1.0965    1.1845   -0.0401 C   0  0  0  0  0  0  0  0  0  0  0  0
    3.3879    2.2482   -0.0714 C   0  0  0  0  0  0  0  0  0  0  0  0
    3.7327    1.1936   -0.1240 H   0  0  0  0  0  0  0  0  0  0  0  0
    3.8204    2.7143    0.8388 H   0  0  0  0  0  0  0  0  0  0  0  0
    3.7627    2.7855   -0.9679 H   0  0  0  0  0  0  0  0  0  0  0  0
   -2.7099    4.6501    0.2188 H   0  0  0  0  0  0  0  0  0  0  0  0
   -4.9433    0.2278    0.1147 H   0  0  0  0  0  0  0  0  0  0  0  0
   -0.5706    4.6515    0.1498 H   0  0  0  0  0  0  0  0  0  0  0  0
    1.8538    4.4915    0.0660 H   0  0  0  0  0  0  0  0  0  0  0  0
    1.5481    0.2024   -0.0933 H   0  0  0  0  0  0  0  0  0  0  0  0
  1  2  1  0  0  0  0
  1  7  1  0  0  0  0
  2  4  1  0  0  0  0
  3 19  1  0  0  0  0
  3  2  2  0  0  0  0
  5  3  1  0  0  0  0
  6  1  2  0  0  0  0
  8  5  2  0  0  0  0
  8  6  1  0  0  0  0
  9 10  1  0  0  0  0
  9  5  1  0  0  0  0
 10 21  1  0  0  0  0
 11 22  1  0  0  0  0
 11 10  2  0  0  0  0
 12 11  1  0  0  0  0
 13  9  2  0  0  0  0
 14 12  2  0  0  0  0
 14 13  1  0  0  0  0
 15 12  1  0  0  0  0
 15 17  1  0  0  0  0
 16 15  1  0  0  0  0
 18 15  1  0  0  0  0
 20  6  1  0  0  0  0
 23 14  1  0  0  0  0
M  CHG  1   8  -1
M  END
