
 OpenBabel05032121063D

 27 28  0  0  0  0  0  0  0  0999 V2000
   -5.2451    2.5563    0.1421 C   0  0  0  0  0  0  0  0  0  0  0  0
   -4.5705    3.7926    0.1304 C   0  0  0  0  0  0  0  0  0  0  0  0
   -3.1682    3.8089    0.1023 C   0  0  0  0  0  0  0  0  0  0  0  0
   -2.4265    2.6072    0.0857 C   0  0  0  0  0  0  0  0  0  0  0  0
   -4.5218    1.3640    0.1258 C   0  0  0  0  0  0  0  0  0  0  0  0
   -6.3253    2.5057    0.1636 H   0  0  0  0  0  0  0  0  0  0  0  0
   -3.1285    1.3921    0.0980 C   0  0  0  0  0  0  0  0  0  0  0  0
   -0.9354    2.5619    0.0558 C   0  0  0  0  0  0  0  0  0  0  0  0
   -0.1304    3.7192    0.0414 C   0  0  0  0  0  0  0  0  0  0  0  0
    1.2602    3.5947    0.0134 C   0  0  0  0  0  0  0  0  0  0  0  0
    1.8551    2.3294   -0.0005 C   0  0  0  0  0  0  0  0  0  0  0  0
   -0.3215    1.3433    0.0416 N   0  0  0  0  0  0  0  0  0  0  0  0
    1.0294    1.1996    0.0143 C   0  0  0  0  0  0  0  0  0  0  0  0
    3.3490    2.1998   -0.0307 C   0  0  0  0  0  0  0  0  0  0  0  0
    3.6656    1.1351   -0.0387 H   0  0  0  0  0  0  0  0  0  0  0  0
    3.7841    2.6890    0.8661 H   0  0  0  0  0  0  0  0  0  0  0  0
    3.7478    2.6919   -0.9427 H   0  0  0  0  0  0  0  0  0  0  0  0
   -2.6833    4.7724    0.0940 H   0  0  0  0  0  0  0  0  0  0  0  0
   -5.0391    0.4139    0.1348 H   0  0  0  0  0  0  0  0  0  0  0  0
   -0.5450    4.7146    0.0513 H   0  0  0  0  0  0  0  0  0  0  0  0
    1.8748    4.4868    0.0024 H   0  0  0  0  0  0  0  0  0  0  0  0
    1.4548    0.2044    0.0042 H   0  0  0  0  0  0  0  0  0  0  0  0
   -5.2260    4.9826    0.1452 O   0  0  0  0  0  0  0  0  0  0  0  0
   -6.5950    5.1500    0.1728 C   0  0  0  0  0  0  0  0  0  0  0  0
   -6.8272    6.2347    0.1790 H   0  0  0  0  0  0  0  0  0  0  0  0
   -7.0195    4.6918    1.0914 H   0  0  0  0  0  0  0  0  0  0  0  0
   -7.0558    4.6945   -0.7295 H   0  0  0  0  0  0  0  0  0  0  0  0
  1  6  1  0  0  0  0
  2  1  1  0  0  0  0
  2 23  1  0  0  0  0
  3  2  2  0  0  0  0
  4  7  2  0  0  0  0
  4  3  1  0  0  0  0
  5 19  1  0  0  0  0
  5  1  2  0  0  0  0
  7  5  1  0  0  0  0
  8  4  1  0  0  0  0
  9 20  1  0  0  0  0
  9  8  2  0  0  0  0
 10  9  1  0  0  0  0
 11 10  2  0  0  0  0
 11 13  1  0  0  0  0
 12  8  1  0  0  0  0
 13 12  2  0  0  0  0
 14 11  1  0  0  0  0
 14 16  1  0  0  0  0
 15 14  1  0  0  0  0
 17 14  1  0  0  0  0
 18  3  1  0  0  0  0
 21 10  1  0  0  0  0
 22 13  1  0  0  0  0
 23 24  1  0  0  0  0
 24 25  1  0  0  0  0
 24 26  1  0  0  0  0
 27 24  1  0  0  0  0
M  CHG  1   7  -1
M  END
