
 OpenBabel05032121063D

 27 28  0  0  0  0  0  0  0  0999 V2000
   -5.3120    2.7526   -0.9807 C   0  0  0  0  0  0  0  0  0  0  0  0
   -4.6293    3.9421   -0.6592 C   0  0  0  0  0  0  0  0  0  0  0  0
   -3.2536    3.9249   -0.4032 C   0  0  0  0  0  0  0  0  0  0  0  0
   -2.5265    2.7175   -0.4625 C   0  0  0  0  0  0  0  0  0  0  0  0
   -4.5917    1.5559   -1.0394 C   0  0  0  0  0  0  0  0  0  0  0  0
   -3.2201    1.5410   -0.7839 C   0  0  0  0  0  0  0  0  0  0  0  0
   -1.0605    2.6273   -0.2014 C   0  0  0  0  0  0  0  0  0  0  0  0
   -0.2682    3.7454    0.1291 C   0  0  0  0  0  0  0  0  0  0  0  0
    1.0992    3.5809    0.3595 C   0  0  0  0  0  0  0  0  0  0  0  0
    1.6834    2.3141    0.2635 C   0  0  0  0  0  0  0  0  0  0  0  0
   -0.4579    1.4060   -0.2866 N   0  0  0  0  0  0  0  0  0  0  0  0
    0.8706    1.2236   -0.0665 C   0  0  0  0  0  0  0  0  0  0  0  0
    3.1524    2.1414    0.5115 C   0  0  0  0  0  0  0  0  0  0  0  0
    3.4630    1.0810    0.3976 H   0  0  0  0  0  0  0  0  0  0  0  0
    3.3978    2.4705    1.5432 H   0  0  0  0  0  0  0  0  0  0  0  0
    3.7278    2.7558   -0.2125 H   0  0  0  0  0  0  0  0  0  0  0  0
   -2.7827    4.8647   -0.1622 H   0  0  0  0  0  0  0  0  0  0  0  0
   -5.0945    0.6293   -1.2844 H   0  0  0  0  0  0  0  0  0  0  0  0
   -0.6760    4.7401    0.2141 H   0  0  0  0  0  0  0  0  0  0  0  0
    1.7042    4.4430    0.6133 H   0  0  0  0  0  0  0  0  0  0  0  0
    1.2882    0.2286   -0.1496 H   0  0  0  0  0  0  0  0  0  0  0  0
   -5.1485    4.8887   -0.6033 H   0  0  0  0  0  0  0  0  0  0  0  0
   -6.6462    2.7111   -1.2385 O   0  0  0  0  0  0  0  0  0  0  0  0
   -7.5249    3.7769   -1.2310 C   0  0  0  0  0  0  0  0  0  0  0  0
   -8.7893    3.3166   -1.5436 F   0  0  0  0  0  0  0  0  0  0  0  0
   -7.1477    4.7154   -2.1755 F   0  0  0  0  0  0  0  0  0  0  0  0
   -7.5617    4.3587    0.0240 F   0  0  0  0  0  0  0  0  0  0  0  0
  1  2  1  0  0  0  0
  2 22  1  0  0  0  0
  2  3  2  0  0  0  0
  3 17  1  0  0  0  0
  4  3  1  0  0  0  0
  4  7  1  0  0  0  0
  5  1  2  0  0  0  0
  5  6  1  0  0  0  0
  6  4  2  0  0  0  0
  7  8  1  0  0  0  0
  8 19  1  0  0  0  0
  8  9  2  0  0  0  0
  9 20  1  0  0  0  0
 10  9  1  0  0  0  0
 10 13  1  0  0  0  0
 11  7  2  0  0  0  0
 11 12  1  0  0  0  0
 12 10  2  0  0  0  0
 13 15  1  0  0  0  0
 14 13  1  0  0  0  0
 16 13  1  0  0  0  0
 18  5  1  0  0  0  0
 21 12  1  0  0  0  0
 23 24  1  0  0  0  0
 23  1  1  0  0  0  0
 24 27  1  0  0  0  0
 25 24  1  0  0  0  0
 26 24  1  0  0  0  0
M  CHG  1   6  -1
M  END
