
 OpenBabel05032121123D

 23 24  0  0  0  0  0  0  0  0999 V2000
    4.3055    3.1930   -0.5625 C   0  0  0  0  0  0  0  0  0  0  0  0
    4.9233    4.3940   -0.9203 C   0  0  0  0  0  0  0  0  0  0  0  0
    6.2887    4.4221   -1.2258 C   0  0  0  0  0  0  0  0  0  0  0  0
    7.0582    3.2388   -1.1765 C   0  0  0  0  0  0  0  0  0  0  0  0
    5.0546    2.0160   -0.5099 C   0  0  0  0  0  0  0  0  0  0  0  0
    6.4164    2.0425   -0.8144 C   0  0  0  0  0  0  0  0  0  0  0  0
    8.5157    3.1932   -1.4887 C   0  0  0  0  0  0  0  0  0  0  0  0
    9.2583    4.3315   -1.8623 C   0  0  0  0  0  0  0  0  0  0  0  0
   10.6217    4.2085   -2.1395 C   0  0  0  0  0  0  0  0  0  0  0  0
   11.2497    2.9609   -2.0473 C   0  0  0  0  0  0  0  0  0  0  0  0
    9.1605    1.9933   -1.4089 N   0  0  0  0  0  0  0  0  0  0  0  0
   10.4853    1.8513   -1.6742 C   0  0  0  0  0  0  0  0  0  0  0  0
    4.3457    5.3087   -0.9621 H   0  0  0  0  0  0  0  0  0  0  0  0
    6.7176    5.3740   -1.4960 H   0  0  0  0  0  0  0  0  0  0  0  0
    2.4418    3.1606   -0.1465 Br  0  0  0  0  0  0  0  0  0  0  0  0
    4.5870    1.0802   -0.2342 H   0  0  0  0  0  0  0  0  0  0  0  0
    8.8146    5.3110   -1.9457 H   0  0  0  0  0  0  0  0  0  0  0  0
   11.1851    5.0880   -2.4260 H   0  0  0  0  0  0  0  0  0  0  0  0
   10.9412    0.8728   -1.5937 H   0  0  0  0  0  0  0  0  0  0  0  0
   12.7118    2.8027   -2.3397 C   0  0  0  0  0  0  0  0  0  0  0  0
   13.1783    3.7707   -2.6211 H   0  0  0  0  0  0  0  0  0  0  0  0
   12.8489    2.0890   -3.1792 H   0  0  0  0  0  0  0  0  0  0  0  0
   13.2314    2.4102   -1.4403 H   0  0  0  0  0  0  0  0  0  0  0  0
  1  5  1  0  0  0  0
  1 15  1  0  0  0  0
  2  1  2  0  0  0  0
  3  4  2  0  0  0  0
  3  2  1  0  0  0  0
  4  6  1  0  0  0  0
  5 16  1  0  0  0  0
  6  5  2  0  0  0  0
  7 11  1  0  0  0  0
  7  4  1  0  0  0  0
  8  7  2  0  0  0  0
  9 10  2  0  0  0  0
  9  8  1  0  0  0  0
 10 12  1  0  0  0  0
 12 19  1  0  0  0  0
 12 11  2  0  0  0  0
 13  2  1  0  0  0  0
 14  3  1  0  0  0  0
 17  8  1  0  0  0  0
 18  9  1  0  0  0  0
 20 10  1  0  0  0  0
 20 23  1  0  0  0  0
 21 20  1  0  0  0  0
 22 20  1  0  0  0  0
M  CHG  1   6  -1
M  END
