
 OpenBabel05032121063D

 26 27  0  0  0  0  0  0  0  0999 V2000
   -5.2332    2.7615   -0.9644 C   0  0  0  0  0  0  0  0  0  0  0  0
   -4.5545    3.9462   -0.6444 C   0  0  0  0  0  0  0  0  0  0  0  0
   -3.1788    3.9287   -0.3886 C   0  0  0  0  0  0  0  0  0  0  0  0
   -2.4529    2.7197   -0.4484 C   0  0  0  0  0  0  0  0  0  0  0  0
   -4.5197    1.5586   -1.0256 C   0  0  0  0  0  0  0  0  0  0  0  0
   -3.1478    1.5427   -0.7702 C   0  0  0  0  0  0  0  0  0  0  0  0
   -0.9870    2.6280   -0.1876 C   0  0  0  0  0  0  0  0  0  0  0  0
   -0.1937    3.7453    0.1430 C   0  0  0  0  0  0  0  0  0  0  0  0
    1.1737    3.5796    0.3732 C   0  0  0  0  0  0  0  0  0  0  0  0
    1.7566    2.3122    0.2770 C   0  0  0  0  0  0  0  0  0  0  0  0
   -0.3855    1.4062   -0.2730 N   0  0  0  0  0  0  0  0  0  0  0  0
    0.9427    1.2226   -0.0530 C   0  0  0  0  0  0  0  0  0  0  0  0
    3.2255    2.1381    0.5249 C   0  0  0  0  0  0  0  0  0  0  0  0
    3.5351    1.0774    0.4108 H   0  0  0  0  0  0  0  0  0  0  0  0
    3.4713    2.4669    1.5566 H   0  0  0  0  0  0  0  0  0  0  0  0
    3.8014    2.7521   -0.1992 H   0  0  0  0  0  0  0  0  0  0  0  0
   -2.7076    4.8683   -0.1474 H   0  0  0  0  0  0  0  0  0  0  0  0
   -5.0229    0.6319   -1.2707 H   0  0  0  0  0  0  0  0  0  0  0  0
   -0.6006    4.7404    0.2281 H   0  0  0  0  0  0  0  0  0  0  0  0
    1.7794    4.4411    0.6270 H   0  0  0  0  0  0  0  0  0  0  0  0
    1.3595    0.2272   -0.1364 H   0  0  0  0  0  0  0  0  0  0  0  0
   -5.0884    4.8871   -0.5920 H   0  0  0  0  0  0  0  0  0  0  0  0
   -6.7076    2.7684   -1.2406 C   0  0  0  0  0  0  0  0  0  0  0  0
   -7.1346    3.7903   -1.1550 H   0  0  0  0  0  0  0  0  0  0  0  0
   -7.2266    2.1092   -0.5132 H   0  0  0  0  0  0  0  0  0  0  0  0
   -6.8964    2.3943   -2.2689 H   0  0  0  0  0  0  0  0  0  0  0  0
  1  2  1  0  0  0  0
  2 22  1  0  0  0  0
  2  3  2  0  0  0  0
  3 17  1  0  0  0  0
  4  3  1  0  0  0  0
  4  7  1  0  0  0  0
  5  1  2  0  0  0  0
  5  6  1  0  0  0  0
  6  4  2  0  0  0  0
  7  8  1  0  0  0  0
  8 19  1  0  0  0  0
  8  9  2  0  0  0  0
  9 20  1  0  0  0  0
 10  9  1  0  0  0  0
 10 13  1  0  0  0  0
 11  7  2  0  0  0  0
 11 12  1  0  0  0  0
 12 10  2  0  0  0  0
 13 15  1  0  0  0  0
 14 13  1  0  0  0  0
 16 13  1  0  0  0  0
 18  5  1  0  0  0  0
 21 12  1  0  0  0  0
 23 24  1  0  0  0  0
 23  1  1  0  0  0  0
 23 25  1  0  0  0  0
 26 23  1  0  0  0  0
M  CHG  1   6  -1
M  END
