
 OpenBabel05032121073D

 20 21  0  0  0  0  0  0  0  0999 V2000
   -5.2362    3.3730   -1.1905 C   0  0  0  0  0  0  0  0  0  0  0  0
   -4.5301    4.5167   -0.8116 C   0  0  0  0  0  0  0  0  0  0  0  0
   -3.1805    4.4261   -0.4519 C   0  0  0  0  0  0  0  0  0  0  0  0
   -2.5171    3.1790   -0.4675 C   0  0  0  0  0  0  0  0  0  0  0  0
   -4.5937    2.1344   -1.2106 C   0  0  0  0  0  0  0  0  0  0  0  0
   -3.2476    2.0417   -0.8521 C   0  0  0  0  0  0  0  0  0  0  0  0
   -1.0824    3.0078   -0.0970 C   0  0  0  0  0  0  0  0  0  0  0  0
   -0.2581    4.0806    0.3031 C   0  0  0  0  0  0  0  0  0  0  0  0
    1.0773    3.8394    0.6348 C   0  0  0  0  0  0  0  0  0  0  0  0
    1.5905    2.5453    0.5703 C   0  0  0  0  0  0  0  0  0  0  0  0
   -0.5413    1.7552   -0.1472 N   0  0  0  0  0  0  0  0  0  0  0  0
    0.7555    1.5030    0.1721 C   0  0  0  0  0  0  0  0  0  0  0  0
   -2.6804    5.3381   -0.1672 H   0  0  0  0  0  0  0  0  0  0  0  0
   -5.1341    1.2439   -1.5029 H   0  0  0  0  0  0  0  0  0  0  0  0
   -0.6167    5.0957    0.3659 H   0  0  0  0  0  0  0  0  0  0  0  0
    1.1368    0.4922    0.1162 H   0  0  0  0  0  0  0  0  0  0  0  0
   -5.0283    5.4777   -0.7960 H   0  0  0  0  0  0  0  0  0  0  0  0
    2.6243    2.3521    0.8260 H   0  0  0  0  0  0  0  0  0  0  0  0
    1.7151    4.6582    0.9426 H   0  0  0  0  0  0  0  0  0  0  0  0
   -6.5434    3.4658   -1.5382 F   0  0  0  0  0  0  0  0  0  0  0  0
  1  2  1  0  0  0  0
  2 17  1  0  0  0  0
  2  3  2  0  0  0  0
  3 13  1  0  0  0  0
  4  3  1  0  0  0  0
  4  7  1  0  0  0  0
  5  1  2  0  0  0  0
  5  6  1  0  0  0  0
  6  4  2  0  0  0  0
  7  8  1  0  0  0  0
  8 15  1  0  0  0  0
  8  9  2  0  0  0  0
  9 19  1  0  0  0  0
 10  9  1  0  0  0  0
 10 18  1  0  0  0  0
 11  7  2  0  0  0  0
 11 12  1  0  0  0  0
 12 10  2  0  0  0  0
 14  5  1  0  0  0  0
 16 12  1  0  0  0  0
 20  1  1  0  0  0  0
M  CHG  1   6  -1
M  END
