
 OpenBabel05032121073D

 23 24  0  0  0  0  0  0  0  0999 V2000
   -5.3354    3.3470   -1.2222 C   0  0  0  0  0  0  0  0  0  0  0  0
   -4.6615    4.5098   -0.8493 C   0  0  0  0  0  0  0  0  0  0  0  0
   -3.3102    4.4652   -0.4817 C   0  0  0  0  0  0  0  0  0  0  0  0
   -2.6084    3.2299   -0.4847 C   0  0  0  0  0  0  0  0  0  0  0  0
   -4.6619    2.1280   -1.2304 C   0  0  0  0  0  0  0  0  0  0  0  0
   -3.3168    2.0752   -0.8658 C   0  0  0  0  0  0  0  0  0  0  0  0
   -1.1670    3.0497   -0.1138 C   0  0  0  0  0  0  0  0  0  0  0  0
   -0.3138    4.0988    0.2906 C   0  0  0  0  0  0  0  0  0  0  0  0
    1.0170    3.8263    0.6161 C   0  0  0  0  0  0  0  0  0  0  0  0
    1.5095    2.5206    0.5438 C   0  0  0  0  0  0  0  0  0  0  0  0
   -0.6477    1.7878   -0.1716 N   0  0  0  0  0  0  0  0  0  0  0  0
    0.6428    1.5005    0.1403 C   0  0  0  0  0  0  0  0  0  0  0  0
   -2.7310    5.6369   -0.1336 F   0  0  0  0  0  0  0  0  0  0  0  0
   -5.1779    1.2220   -1.5184 H   0  0  0  0  0  0  0  0  0  0  0  0
   -0.6305    5.1221    0.3665 H   0  0  0  0  0  0  0  0  0  0  0  0
    0.9878    0.4769    0.0723 H   0  0  0  0  0  0  0  0  0  0  0  0
   -5.1906    5.4544   -0.8449 H   0  0  0  0  0  0  0  0  0  0  0  0
    2.9392    2.2335    0.8944 C   0  0  0  0  0  0  0  0  0  0  0  0
    1.6661    4.6367    0.9257 H   0  0  0  0  0  0  0  0  0  0  0  0
   -6.3794    3.3916   -1.5045 H   0  0  0  0  0  0  0  0  0  0  0  0
    3.1760    1.1535    0.7873 H   0  0  0  0  0  0  0  0  0  0  0  0
    3.1329    2.5332    1.9458 H   0  0  0  0  0  0  0  0  0  0  0  0
    3.6107    2.8087    0.2228 H   0  0  0  0  0  0  0  0  0  0  0  0
  1  2  1  0  0  0  0
  2 17  1  0  0  0  0
  2  3  2  0  0  0  0
  3 13  1  0  0  0  0
  4  3  1  0  0  0  0
  4  7  1  0  0  0  0
  5  1  2  0  0  0  0
  5  6  1  0  0  0  0
  6  4  2  0  0  0  0
  7  8  1  0  0  0  0
  8 15  1  0  0  0  0
  8  9  2  0  0  0  0
  9 19  1  0  0  0  0
 10  9  1  0  0  0  0
 10 18  1  0  0  0  0
 11  7  2  0  0  0  0
 11 12  1  0  0  0  0
 12 10  2  0  0  0  0
 14  5  1  0  0  0  0
 16 12  1  0  0  0  0
 18 22  1  0  0  0  0
 20  1  1  0  0  0  0
 21 18  1  0  0  0  0
 23 18  1  0  0  0  0
M  CHG  1   6  -1
M  END
