
 OpenBabel05032121073D

 23 24  0  0  0  0  0  0  0  0999 V2000
   -4.4027    2.7312    0.0214 C   0  0  0  0  0  0  0  0  0  0  0  0
   -4.4615    1.3370   -0.0381 C   0  0  0  0  0  0  0  0  0  0  0  0
   -3.1637    3.3808    0.0352 C   0  0  0  0  0  0  0  0  0  0  0  0
   -1.9663    2.6436   -0.0103 C   0  0  0  0  0  0  0  0  0  0  0  0
   -2.0453    1.2427   -0.0698 C   0  0  0  0  0  0  0  0  0  0  0  0
   -3.2813    0.5923   -0.0837 C   0  0  0  0  0  0  0  0  0  0  0  0
   -0.6544    3.4086    0.0077 C   0  0  0  0  0  0  0  0  0  0  0  0
    0.6500    2.6354   -0.0405 C   0  0  0  0  0  0  0  0  0  0  0  0
   -0.6411    4.0206    0.9359 H   0  0  0  0  0  0  0  0  0  0  0  0
   -0.6616    4.0983   -0.8643 H   0  0  0  0  0  0  0  0  0  0  0  0
    0.6913    1.2741   -0.0998 N   0  0  0  0  0  0  0  0  0  0  0  0
    1.8574    3.3519   -0.0232 C   0  0  0  0  0  0  0  0  0  0  0  0
    3.0713    2.6629   -0.0668 C   0  0  0  0  0  0  0  0  0  0  0  0
    3.0773    1.2693   -0.1270 C   0  0  0  0  0  0  0  0  0  0  0  0
    1.8619    0.5839   -0.1429 C   0  0  0  0  0  0  0  0  0  0  0  0
   -5.3169    3.3096    0.0568 H   0  0  0  0  0  0  0  0  0  0  0  0
   -3.1369    4.4628    0.0816 H   0  0  0  0  0  0  0  0  0  0  0  0
   -5.4202    0.8347   -0.0488 H   0  0  0  0  0  0  0  0  0  0  0  0
   -3.3204   -0.4878   -0.1299 H   0  0  0  0  0  0  0  0  0  0  0  0
    1.8571    4.4341    0.0235 H   0  0  0  0  0  0  0  0  0  0  0  0
    4.0057    3.2090   -0.0538 H   0  0  0  0  0  0  0  0  0  0  0  0
    1.8480   -0.4968   -0.1894 H   0  0  0  0  0  0  0  0  0  0  0  0
    4.0129    0.7263   -0.1611 H   0  0  0  0  0  0  0  0  0  0  0  0
  1  3  1  0  0  0  0
  1 16  1  0  0  0  0
  2  1  2  0  0  0  0
  3 17  1  0  0  0  0
  4  7  1  0  0  0  0
  4  3  2  0  0  0  0
  5  4  1  0  0  0  0
  6  5  2  0  0  0  0
  6  2  1  0  0  0  0
  7  9  1  0  0  0  0
  8 12  1  0  0  0  0
  8  7  1  0  0  0  0
 10  7  1  0  0  0  0
 11  8  2  0  0  0  0
 12 20  1  0  0  0  0
 13 21  1  0  0  0  0
 13 12  2  0  0  0  0
 14 13  1  0  0  0  0
 15 14  2  0  0  0  0
 15 11  1  0  0  0  0
 18  2  1  0  0  0  0
 19  6  1  0  0  0  0
 22 15  1  0  0  0  0
 23 14  1  0  0  0  0
M  CHG  1   5  -1
M  END
