
 OpenBabel05032121123D

 24 25  0  0  0  0  0  0  0  0999 V2000
    4.2220    3.2100   -0.5671 C   0  0  0  0  0  0  0  0  0  0  0  0
    4.8735    4.3995   -0.9201 C   0  0  0  0  0  0  0  0  0  0  0  0
    6.2527    4.4020   -1.2122 C   0  0  0  0  0  0  0  0  0  0  0  0
    7.0259    3.2193   -1.1609 C   0  0  0  0  0  0  0  0  0  0  0  0
    4.9721    2.0229   -0.5003 C   0  0  0  0  0  0  0  0  0  0  0  0
    6.3482    2.0377   -0.7943 C   0  0  0  0  0  0  0  0  0  0  0  0
    8.5145    3.1738   -1.4808 C   0  0  0  0  0  0  0  0  0  0  0  0
    9.2708    4.3179   -1.8611 C   0  0  0  0  0  0  0  0  0  0  0  0
   10.6128    4.2017   -2.1363 C   0  0  0  0  0  0  0  0  0  0  0  0
   11.1734    2.9597   -2.0303 C   0  0  0  0  0  0  0  0  0  0  0  0
    9.1717    1.9717   -1.4050 N   0  0  0  0  0  0  0  0  0  0  0  0
   10.4868    1.8370   -1.6715 C   0  0  0  0  0  0  0  0  0  0  0  0
    4.3187    5.3315   -0.9742 H   0  0  0  0  0  0  0  0  0  0  0  0
    6.7043    5.3374   -1.4813 H   0  0  0  0  0  0  0  0  0  0  0  0
    2.7999    3.2159   -0.2822 C   0  0  0  0  0  0  0  0  0  0  0  0
    4.5202    1.0732   -0.2276 H   0  0  0  0  0  0  0  0  0  0  0  0
    8.8525    5.2991   -1.9511 H   0  0  0  0  0  0  0  0  0  0  0  0
   11.2280    5.0659   -2.4320 H   0  0  0  0  0  0  0  0  0  0  0  0
   10.9931    0.8685   -1.6046 H   0  0  0  0  0  0  0  0  0  0  0  0
   12.4711    2.8318   -2.2926 C   0  0  0  0  0  0  0  0  0  0  0  0
    1.6632    3.2168   -0.0538 N   0  0  0  0  0  0  0  0  0  0  0  0
   12.8187    3.8036   -2.5487 H   0  0  0  0  0  0  0  0  0  0  0  0
   12.5021    2.1453   -3.1064 H   0  0  0  0  0  0  0  0  0  0  0  0
   12.8820    2.4641   -1.3812 H   0  0  0  0  0  0  0  0  0  0  0  0
  1  5  1  0  0  0  0
  1 15  1  0  0  0  0
  2  1  2  0  0  0  0
  3  4  2  0  0  0  0
  3  2  1  0  0  0  0
  4  6  1  0  0  0  0
  5 16  1  0  0  0  0
  6  5  2  0  0  0  0
  7 11  1  0  0  0  0
  7  4  1  0  0  0  0
  8  7  2  0  0  0  0
  9 10  2  0  0  0  0
  9  8  1  0  0  0  0
 10 12  1  0  0  0  0
 12 19  1  0  0  0  0
 12 11  2  0  0  0  0
 13  2  1  0  0  0  0
 14  3  1  0  0  0  0
 15 21  3  0  0  0  0
 17  8  1  0  0  0  0
 18  9  1  0  0  0  0
 20 10  1  0  0  0  0
 20 24  1  0  0  0  0
 22 20  1  0  0  0  0
 23 20  1  0  0  0  0
M  CHG  1   6  -1
M  END
