
 OpenBabel05032121073D

 30 32  0  0  0  0  0  0  0  0999 V2000
   -3.5564    3.1107   -0.1120 C   0  0  0  0  0  0  0  0  0  0  0  0
   -4.2923    1.9274   -0.0307 C   0  0  0  0  0  0  0  0  0  0  0  0
   -2.1572    3.0732   -0.1229 C   0  0  0  0  0  0  0  0  0  0  0  0
   -1.4720    1.8385   -0.0519 C   0  0  0  0  0  0  0  0  0  0  0  0
   -2.2357    0.6609    0.0293 C   0  0  0  0  0  0  0  0  0  0  0  0
   -3.6310    0.7014    0.0400 C   0  0  0  0  0  0  0  0  0  0  0  0
    0.0173    1.7138   -0.0580 C   0  0  0  0  0  0  0  0  0  0  0  0
    0.5560    0.4673    0.0155 N   0  0  0  0  0  0  0  0  0  0  0  0
    0.8875    2.8226   -0.1356 C   0  0  0  0  0  0  0  0  0  0  0  0
    2.2957    2.6515   -0.1374 C   0  0  0  0  0  0  0  0  0  0  0  0
    2.7767    1.3239   -0.0581 C   0  0  0  0  0  0  0  0  0  0  0  0
    1.8918    0.2518    0.0171 C   0  0  0  0  0  0  0  0  0  0  0  0
   -4.0712    4.0613   -0.1668 H   0  0  0  0  0  0  0  0  0  0  0  0
   -1.6416    4.0176   -0.1870 H   0  0  0  0  0  0  0  0  0  0  0  0
   -5.3742    1.9611   -0.0226 H   0  0  0  0  0  0  0  0  0  0  0  0
   -4.1958   -0.2192    0.1031 H   0  0  0  0  0  0  0  0  0  0  0  0
    0.4618    3.8001   -0.1923 H   0  0  0  0  0  0  0  0  0  0  0  0
    3.2462    3.8344   -0.2203 C   0  0  0  0  0  0  0  0  0  0  0  0
    2.2700   -0.7603    0.0771 H   0  0  0  0  0  0  0  0  0  0  0  0
    3.8230    1.0750   -0.0526 H   0  0  0  0  0  0  0  0  0  0  0  0
    2.7723    5.1696   -0.3178 C   0  0  0  0  0  0  0  0  0  0  0  0
    4.6548    3.6569   -0.2039 C   0  0  0  0  0  0  0  0  0  0  0  0
    5.5274    4.7463   -0.2801 C   0  0  0  0  0  0  0  0  0  0  0  0
    3.6544    6.2516   -0.3937 C   0  0  0  0  0  0  0  0  0  0  0  0
    5.0290    6.0412   -0.3749 C   0  0  0  0  0  0  0  0  0  0  0  0
    5.1204    2.6900   -0.1320 H   0  0  0  0  0  0  0  0  0  0  0  0
    1.7268    5.4206   -0.3396 H   0  0  0  0  0  0  0  0  0  0  0  0
    3.2670    7.2599   -0.4678 H   0  0  0  0  0  0  0  0  0  0  0  0
    5.7083    6.8819   -0.4337 H   0  0  0  0  0  0  0  0  0  0  0  0
    6.5976    4.5830   -0.2652 H   0  0  0  0  0  0  0  0  0  0  0  0
  1  2  1  0  0  0  0
  2 15  1  0  0  0  0
  2  6  2  0  0  0  0
  3  1  2  0  0  0  0
  3  4  1  0  0  0  0
  4  5  2  0  0  0  0
  5  6  1  0  0  0  0
  6 16  1  0  0  0  0
  7  4  1  0  0  0  0
  7  8  2  0  0  0  0
  8 12  1  0  0  0  0
  9  7  1  0  0  0  0
 10  9  2  0  0  0  0
 10 11  1  0  0  0  0
 11 20  1  0  0  0  0
 11 12  2  0  0  0  0
 12 19  1  0  0  0  0
 13  1  1  0  0  0  0
 14  3  1  0  0  0  0
 17  9  1  0  0  0  0
 18 22  1  0  0  0  0
 18 10  1  0  0  0  0
 21 18  2  0  0  0  0
 22 26  1  0  0  0  0
 23 30  1  0  0  0  0
 23 22  2  0  0  0  0
 24 25  2  0  0  0  0
 24 21  1  0  0  0  0
 25 23  1  0  0  0  0
 27 21  1  0  0  0  0
 28 24  1  0  0  0  0
 29 25  1  0  0  0  0
M  CHG  1   5  -1
M  END
