
 OpenBabel05032121083D

 26 27  0  0  0  0  0  0  0  0999 V2000
   -3.5079    3.2751    0.1050 C   0  0  0  0  0  0  0  0  0  0  0  0
   -4.3119    2.1408    0.2358 C   0  0  0  0  0  0  0  0  0  0  0  0
   -2.1189    3.1465   -0.0089 C   0  0  0  0  0  0  0  0  0  0  0  0
   -1.5139    1.8700    0.0069 C   0  0  0  0  0  0  0  0  0  0  0  0
   -2.3428    0.7428    0.1395 C   0  0  0  0  0  0  0  0  0  0  0  0
   -3.7281    0.8734    0.2530 C   0  0  0  0  0  0  0  0  0  0  0  0
   -0.0420    1.6573   -0.1097 C   0  0  0  0  0  0  0  0  0  0  0  0
    0.4353    0.3808   -0.0827 N   0  0  0  0  0  0  0  0  0  0  0  0
    0.8785    2.7136   -0.2465 C   0  0  0  0  0  0  0  0  0  0  0  0
    2.2434    2.4367   -0.3504 C   0  0  0  0  0  0  0  0  0  0  0  0
    2.7058    1.1086   -0.3193 C   0  0  0  0  0  0  0  0  0  0  0  0
    1.7576    0.0866   -0.1819 C   0  0  0  0  0  0  0  0  0  0  0  0
   -3.9606    4.2584    0.0916 H   0  0  0  0  0  0  0  0  0  0  0  0
   -1.5431    4.0529   -0.1076 H   0  0  0  0  0  0  0  0  0  0  0  0
   -5.6570    2.2706    0.3458 F   0  0  0  0  0  0  0  0  0  0  0  0
   -4.3443   -0.0100    0.3539 H   0  0  0  0  0  0  0  0  0  0  0  0
    0.5723    3.7473   -0.2754 H   0  0  0  0  0  0  0  0  0  0  0  0
    2.0704   -0.9495   -0.1535 H   0  0  0  0  0  0  0  0  0  0  0  0
    4.1677    0.7210   -0.4257 C   0  0  0  0  0  0  0  0  0  0  0  0
    5.1467    1.8863   -0.5735 C   0  0  0  0  0  0  0  0  0  0  0  0
    4.2912    0.0545   -1.3067 H   0  0  0  0  0  0  0  0  0  0  0  0
    4.4473    0.1509    0.4867 H   0  0  0  0  0  0  0  0  0  0  0  0
    4.9299    2.4606   -1.4993 H   0  0  0  0  0  0  0  0  0  0  0  0
    6.1825    1.4920   -0.6425 H   0  0  0  0  0  0  0  0  0  0  0  0
    5.0873    2.5578    0.3093 H   0  0  0  0  0  0  0  0  0  0  0  0
    2.9235    3.2703   -0.4544 H   0  0  0  0  0  0  0  0  0  0  0  0
  1  2  2  0  0  0  0
  2  6  1  0  0  0  0
  2 15  1  0  0  0  0
  3  4  2  0  0  0  0
  3  1  1  0  0  0  0
  4  5  1  0  0  0  0
  5  6  2  0  0  0  0
  6 16  1  0  0  0  0
  7  8  1  0  0  0  0
  7  4  1  0  0  0  0
  9  7  2  0  0  0  0
 10 11  2  0  0  0  0
 10  9  1  0  0  0  0
 11 12  1  0  0  0  0
 12 18  1  0  0  0  0
 12  8  2  0  0  0  0
 13  1  1  0  0  0  0
 14  3  1  0  0  0  0
 17  9  1  0  0  0  0
 19 11  1  0  0  0  0
 19 22  1  0  0  0  0
 20 19  1  0  0  0  0
 20 25  1  0  0  0  0
 21 19  1  0  0  0  0
 23 20  1  0  0  0  0
 24 20  1  0  0  0  0
 26 10  1  0  0  0  0
M  CHG  1   5  -1
M  END
