
 OpenBabel05032121083D

 33 35  0  0  0  0  0  0  0  0999 V2000
   -3.5388    3.2918   -0.0026 C   0  0  0  0  0  0  0  0  0  0  0  0
   -4.3223    2.1365    0.0523 C   0  0  0  0  0  0  0  0  0  0  0  0
   -2.1424    3.1987   -0.0154 C   0  0  0  0  0  0  0  0  0  0  0  0
   -1.5066    1.9370    0.0271 C   0  0  0  0  0  0  0  0  0  0  0  0
   -2.3159    0.7890    0.0819 C   0  0  0  0  0  0  0  0  0  0  0  0
   -3.7084    0.8835    0.0946 C   0  0  0  0  0  0  0  0  0  0  0  0
   -0.0236    1.7545    0.0165 C   0  0  0  0  0  0  0  0  0  0  0  0
    0.4668    0.4908    0.0560 N   0  0  0  0  0  0  0  0  0  0  0  0
    0.8865    2.8249   -0.0335 C   0  0  0  0  0  0  0  0  0  0  0  0
    2.2885    2.6112   -0.0314 C   0  0  0  0  0  0  0  0  0  0  0  0
    2.7437    1.2525    0.0193 C   0  0  0  0  0  0  0  0  0  0  0  0
    1.7914    0.2198    0.0537 C   0  0  0  0  0  0  0  0  0  0  0  0
   -4.0109    4.2656   -0.0357 H   0  0  0  0  0  0  0  0  0  0  0  0
   -1.5892    4.1228   -0.0590 H   0  0  0  0  0  0  0  0  0  0  0  0
   -6.0721    2.2597    0.0680 Cl  0  0  0  0  0  0  0  0  0  0  0  0
   -4.3045   -0.0185    0.1372 H   0  0  0  0  0  0  0  0  0  0  0  0
    0.5066    3.8284   -0.0524 H   0  0  0  0  0  0  0  0  0  0  0  0
    3.1888    3.8317   -0.1191 C   0  0  0  0  0  0  0  0  0  0  0  0
    2.0991   -0.8180    0.0786 H   0  0  0  0  0  0  0  0  0  0  0  0
    2.7369    4.9944   -0.7969 C   0  0  0  0  0  0  0  0  0  0  0  0
    4.4812    3.8898    0.4528 C   0  0  0  0  0  0  0  0  0  0  0  0
    5.2737    5.0373    0.3485 C   0  0  0  0  0  0  0  0  0  0  0  0
    3.5359    6.1361   -0.9011 C   0  0  0  0  0  0  0  0  0  0  0  0
    4.8037    6.1579   -0.3293 C   0  0  0  0  0  0  0  0  0  0  0  0
    4.9013    3.0864    1.0151 H   0  0  0  0  0  0  0  0  0  0  0  0
    1.7709    5.0346   -1.2785 H   0  0  0  0  0  0  0  0  0  0  0  0
    3.1692    7.0062   -1.4306 H   0  0  0  0  0  0  0  0  0  0  0  0
    5.4207    7.0437   -0.4086 H   0  0  0  0  0  0  0  0  0  0  0  0
    6.2566    5.0577    0.8020 H   0  0  0  0  0  0  0  0  0  0  0  0
    4.1905    0.8237   -0.0190 C   0  0  0  0  0  0  0  0  0  0  0  0
    4.7035    1.2822   -0.8901 H   0  0  0  0  0  0  0  0  0  0  0  0
    4.2923   -0.2780   -0.1215 H   0  0  0  0  0  0  0  0  0  0  0  0
    4.7016    1.0521    0.9322 H   0  0  0  0  0  0  0  0  0  0  0  0
  1  2  1  0  0  0  0
  2 15  1  0  0  0  0
  2  6  2  0  0  0  0
  3  1  2  0  0  0  0
  3  4  1  0  0  0  0
  4  5  2  0  0  0  0
  5  6  1  0  0  0  0
  6 16  1  0  0  0  0
  7  4  1  0  0  0  0
  7  8  2  0  0  0  0
  9 10  2  0  0  0  0
  9  7  1  0  0  0  0
 10 11  1  0  0  0  0
 11 12  2  0  0  0  0
 12  8  1  0  0  0  0
 12 19  1  0  0  0  0
 13  1  1  0  0  0  0
 14  3  1  0  0  0  0
 17  9  1  0  0  0  0
 18 10  1  0  0  0  0
 18 21  2  0  0  0  0
 20 18  1  0  0  0  0
 21 25  1  0  0  0  0
 22 21  1  0  0  0  0
 22 29  1  0  0  0  0
 23 20  2  0  0  0  0
 23 24  1  0  0  0  0
 24 22  2  0  0  0  0
 26 20  1  0  0  0  0
 27 23  1  0  0  0  0
 28 24  1  0  0  0  0
 30 11  1  0  0  0  0
 30 33  1  0  0  0  0
 31 30  1  0  0  0  0
 32 30  1  0  0  0  0
M  CHG  1   5  -1
M  END
