
 OpenBabel05032121133D

 27 28  0  0  0  0  0  0  0  0999 V2000
    3.9973    3.0268   -0.8441 C   0  0  0  0  0  0  0  0  0  0  0  0
    4.6116    4.2590   -1.1523 C   0  0  0  0  0  0  0  0  0  0  0  0
    5.9931    4.3302   -1.3676 C   0  0  0  0  0  0  0  0  0  0  0  0
    6.7967    3.1749   -1.2809 C   0  0  0  0  0  0  0  0  0  0  0  0
    4.7975    1.8826   -0.7589 C   0  0  0  0  0  0  0  0  0  0  0  0
    6.1735    1.9571   -0.9739 C   0  0  0  0  0  0  0  0  0  0  0  0
    8.2726    3.1813   -1.4985 C   0  0  0  0  0  0  0  0  0  0  0  0
    8.9986    4.3484   -1.8116 C   0  0  0  0  0  0  0  0  0  0  0  0
   10.3803    4.2747   -2.0013 C   0  0  0  0  0  0  0  0  0  0  0  0
   11.0437    3.0482   -1.8814 C   0  0  0  0  0  0  0  0  0  0  0  0
    8.9519    2.0029   -1.3895 N   0  0  0  0  0  0  0  0  0  0  0  0
   10.2954    1.9089   -1.5699 C   0  0  0  0  0  0  0  0  0  0  0  0
    4.0537    5.1778   -1.2332 H   0  0  0  0  0  0  0  0  0  0  0  0
    6.4087    5.2979   -1.5999 H   0  0  0  0  0  0  0  0  0  0  0  0
    4.3522    0.9245   -0.5239 H   0  0  0  0  0  0  0  0  0  0  0  0
    8.5284    5.3136   -1.9135 H   0  0  0  0  0  0  0  0  0  0  0  0
   10.9304    5.1762   -2.2415 H   0  0  0  0  0  0  0  0  0  0  0  0
   10.7787    0.9454   -1.4703 H   0  0  0  0  0  0  0  0  0  0  0  0
   12.5265    2.9437   -2.0804 C   0  0  0  0  0  0  0  0  0  0  0  0
    2.6631    2.8756   -0.6217 O   0  0  0  0  0  0  0  0  0  0  0  0
    1.6583    3.8257   -0.6428 C   0  0  0  0  0  0  0  0  0  0  0  0
    1.1632    3.8476    0.3497 H   0  0  0  0  0  0  0  0  0  0  0  0
    0.9059    3.5363   -1.4048 H   0  0  0  0  0  0  0  0  0  0  0  0
    2.0059    4.8470   -0.8750 H   0  0  0  0  0  0  0  0  0  0  0  0
   12.9760    3.9306   -2.3211 H   0  0  0  0  0  0  0  0  0  0  0  0
   12.7425    2.2460   -2.9168 H   0  0  0  0  0  0  0  0  0  0  0  0
   13.0011    2.5581   -1.1536 H   0  0  0  0  0  0  0  0  0  0  0  0
  1  5  1  0  0  0  0
  1 20  1  0  0  0  0
  2  1  2  0  0  0  0
  3  4  2  0  0  0  0
  3  2  1  0  0  0  0
  4  6  1  0  0  0  0
  5 15  1  0  0  0  0
  6  5  2  0  0  0  0
  7 11  1  0  0  0  0
  7  4  1  0  0  0  0
  8  7  2  0  0  0  0
  9 10  2  0  0  0  0
  9  8  1  0  0  0  0
 10 12  1  0  0  0  0
 12 18  1  0  0  0  0
 12 11  2  0  0  0  0
 13  2  1  0  0  0  0
 14  3  1  0  0  0  0
 16  8  1  0  0  0  0
 17  9  1  0  0  0  0
 19 10  1  0  0  0  0
 19 27  1  0  0  0  0
 21 20  1  0  0  0  0
 21 22  1  0  0  0  0
 23 21  1  0  0  0  0
 24 21  1  0  0  0  0
 25 19  1  0  0  0  0
 26 19  1  0  0  0  0
M  CHG  1   6  -1
M  END
