
 OpenBabel05032121043D

 22 24  0  0  0  0  0  0  0  0999 V2000
   -5.2205    7.7557    0.7198 C   0  0  0  0  0  0  0  0  0  0  0  0
   -3.8498    7.9313    0.9701 C   0  0  0  0  0  0  0  0  0  0  0  0
   -2.9890    6.8050    0.9840 C   0  0  0  0  0  0  0  0  0  0  0  0
   -5.7339    6.4766    0.4854 C   0  0  0  0  0  0  0  0  0  0  0  0
   -4.8862    5.3662    0.4990 C   0  0  0  0  0  0  0  0  0  0  0  0
   -3.5220    5.5293    0.7468 C   0  0  0  0  0  0  0  0  0  0  0  0
   -1.6155    6.9789    1.2347 C   0  0  0  0  0  0  0  0  0  0  0  0
   -1.1036    8.2764    1.4709 C   0  0  0  0  0  0  0  0  0  0  0  0
    1.1028    7.3136    1.7296 C   0  0  0  0  0  0  0  0  0  0  0  0
   -0.7694    5.9098    1.2527 N   0  0  0  0  0  0  0  0  0  0  0  0
    0.5614    6.0489    1.4922 C   0  0  0  0  0  0  0  0  0  0  0  0
   -5.8930    8.6051    0.7054 H   0  0  0  0  0  0  0  0  0  0  0  0
   -3.3273    9.2115    1.2061 C   0  0  0  0  0  0  0  0  0  0  0  0
   -6.7909    6.3460    0.2929 H   0  0  0  0  0  0  0  0  0  0  0  0
   -5.2843    4.3768    0.3175 H   0  0  0  0  0  0  0  0  0  0  0  0
   -1.9635    9.3831    1.4548 C   0  0  0  0  0  0  0  0  0  0  0  0
    1.2003    5.1760    1.4983 H   0  0  0  0  0  0  0  0  0  0  0  0
   -1.5811   10.3808    1.6346 H   0  0  0  0  0  0  0  0  0  0  0  0
   -3.9743   10.0807    1.1983 H   0  0  0  0  0  0  0  0  0  0  0  0
    0.2670    8.4314    1.7189 C   0  0  0  0  0  0  0  0  0  0  0  0
    0.6894    9.4120    1.9034 H   0  0  0  0  0  0  0  0  0  0  0  0
    2.1622    7.4262    1.9205 H   0  0  0  0  0  0  0  0  0  0  0  0
  1  2  2  0  0  0  0
  2  3  1  0  0  0  0
  2 13  1  0  0  0  0
  3  7  1  0  0  0  0
  4  5  2  0  0  0  0
  4  1  1  0  0  0  0
  5  6  1  0  0  0  0
  6  3  2  0  0  0  0
  7 10  2  0  0  0  0
  7  8  1  0  0  0  0
  8 20  2  0  0  0  0
  9 22  1  0  0  0  0
 10 11  1  0  0  0  0
 11 17  1  0  0  0  0
 11  9  2  0  0  0  0
 12  1  1  0  0  0  0
 13 16  2  0  0  0  0
 14  4  1  0  0  0  0
 15  5  1  0  0  0  0
 16  8  1  0  0  0  0
 16 18  1  0  0  0  0
 19 13  1  0  0  0  0
 20  9  1  0  0  0  0
 20 21  1  0  0  0  0
M  CHG  1   6  -1
M  END
