
 OpenBabel05032121043D

 18 19  0  0  0  0  0  0  0  0999 V2000
   -5.2248    7.7817    0.6442 C   0  0  0  0  0  0  0  0  0  0  0  0
   -3.8587    7.9367    0.9361 C   0  0  0  0  0  0  0  0  0  0  0  0
   -2.9926    6.8242    0.8666 C   0  0  0  0  0  0  0  0  0  0  0  0
   -5.7317    6.5281    0.2845 C   0  0  0  0  0  0  0  0  0  0  0  0
   -4.8793    5.4271    0.2149 C   0  0  0  0  0  0  0  0  0  0  0  0
   -3.5255    5.5780    0.5035 C   0  0  0  0  0  0  0  0  0  0  0  0
   -1.5797    6.9015    1.1509 N   0  0  0  0  0  0  0  0  0  0  0  0
   -0.8454    7.9779    1.5166 C   0  0  0  0  0  0  0  0  0  0  0  0
    0.4647    7.5673    1.6789 C   0  0  0  0  0  0  0  0  0  0  0  0
   -0.7898    5.8421    1.0782 N   0  0  0  0  0  0  0  0  0  0  0  0
    0.4609    6.2194    1.3948 C   0  0  0  0  0  0  0  0  0  0  0  0
   -5.8961    8.6299    0.6952 H   0  0  0  0  0  0  0  0  0  0  0  0
   -3.4964    8.9183    1.2111 H   0  0  0  0  0  0  0  0  0  0  0  0
   -6.7838    6.4060    0.0592 H   0  0  0  0  0  0  0  0  0  0  0  0
   -5.2598    4.4534   -0.0620 H   0  0  0  0  0  0  0  0  0  0  0  0
   -1.2121    8.9849    1.6586 H   0  0  0  0  0  0  0  0  0  0  0  0
    1.3201    8.1645    1.9667 H   0  0  0  0  0  0  0  0  0  0  0  0
    1.3101    5.5501    1.4153 H   0  0  0  0  0  0  0  0  0  0  0  0
  1 12  1  0  0  0  0
  1  2  2  0  0  0  0
  2 13  1  0  0  0  0
  3  2  1  0  0  0  0
  3  7  1  0  0  0  0
  4  1  1  0  0  0  0
  5  4  2  0  0  0  0
  5  6  1  0  0  0  0
  6  3  2  0  0  0  0
  7  8  1  0  0  0  0
  8 16  1  0  0  0  0
  8  9  2  0  0  0  0
  9 17  1  0  0  0  0
 10  7  1  0  0  0  0
 10 11  2  0  0  0  0
 11 18  1  0  0  0  0
 11  9  1  0  0  0  0
 14  4  1  0  0  0  0
 15  5  1  0  0  0  0
M  CHG  1   6  -1
M  END
