
 OpenBabel05032121093D

 20 21  0  0  0  0  0  0  0  0999 V2000
   -5.6545    8.0792    0.5972 C   0  0  0  0  0  0  0  0  0  0  0  0
   -4.2725    8.0760    0.8161 C   0  0  0  0  0  0  0  0  0  0  0  0
   -3.5823    6.8591    0.9714 C   0  0  0  0  0  0  0  0  0  0  0  0
   -6.3576    6.8732    0.5314 C   0  0  0  0  0  0  0  0  0  0  0  0
   -5.6795    5.6613    0.6846 C   0  0  0  0  0  0  0  0  0  0  0  0
   -4.2998    5.6561    0.9033 C   0  0  0  0  0  0  0  0  0  0  0  0
   -2.1239    6.8150    1.2040 C   0  0  0  0  0  0  0  0  0  0  0  0
   -1.2465    7.8779    1.3027 C   0  0  0  0  0  0  0  0  0  0  0  0
   -0.0332    7.3438    1.5150 N   0  0  0  0  0  0  0  0  0  0  0  0
   -1.4145    5.6764    1.3594 N   0  0  0  0  0  0  0  0  0  0  0  0
   -0.1498    6.0263    1.5464 N   0  0  0  0  0  0  0  0  0  0  0  0
   -6.1806    9.0177    0.4784 H   0  0  0  0  0  0  0  0  0  0  0  0
   -3.7526    9.0230    0.8626 H   0  0  0  0  0  0  0  0  0  0  0  0
   -6.2198    4.7255    0.6345 H   0  0  0  0  0  0  0  0  0  0  0  0
   -1.4578    8.9364    1.2292 H   0  0  0  0  0  0  0  0  0  0  0  0
    1.2165    8.0705    1.6854 C   0  0  0  0  0  0  0  0  0  0  0  0
    2.0553    7.3602    1.8451 H   0  0  0  0  0  0  0  0  0  0  0  0
    1.1410    8.7430    2.5656 H   0  0  0  0  0  0  0  0  0  0  0  0
    1.4241    8.6754    0.7778 H   0  0  0  0  0  0  0  0  0  0  0  0
   -7.4266    6.8779    0.3620 H   0  0  0  0  0  0  0  0  0  0  0  0
  1  2  1  0  0  0  0
  2 13  1  0  0  0  0
  2  3  2  0  0  0  0
  3  7  1  0  0  0  0
  4  1  2  0  0  0  0
  4  5  1  0  0  0  0
  5  6  2  0  0  0  0
  6  3  1  0  0  0  0
  7  8  2  0  0  0  0
  7 10  1  0  0  0  0
  8  9  1  0  0  0  0
  9 11  1  0  0  0  0
  9 16  1  0  0  0  0
 10 11  2  0  0  0  0
 12  1  1  0  0  0  0
 14  5  1  0  0  0  0
 15  8  1  0  0  0  0
 16 17  1  0  0  0  0
 16 18  1  0  0  0  0
 19 16  1  0  0  0  0
 20  4  1  0  0  0  0
M  CHG  1   6  -1
M  END
