
 OpenBabel05032121103D

 20 21  0  0  0  0  0  0  0  0999 V2000
   -0.3688    0.0000    2.5854 C   0  0  0  0  0  0  0  0  0  0  0  0
    0.2018   -0.0000    3.8573 C   0  0  0  0  0  0  0  0  0  0  0  0
    1.5949   -0.0000    4.0021 C   0  0  0  0  0  0  0  0  0  0  0  0
    2.4151   -0.0001    2.8513 C   0  0  0  0  0  0  0  0  0  0  0  0
    0.4630   -0.0000    1.4685 C   0  0  0  0  0  0  0  0  0  0  0  0
    1.8142   -0.0001    1.6255 N   0  0  0  0  0  0  0  0  0  0  0  0
    3.9074   -0.0001    2.8985 C   0  0  0  0  0  0  0  0  0  0  0  0
    4.6487   -0.0001    4.0994 C   0  0  0  0  0  0  0  0  0  0  0  0
    6.0480   -0.0002    4.0477 C   0  0  0  0  0  0  0  0  0  0  0  0
    6.7034   -0.0002    2.8170 C   0  0  0  0  0  0  0  0  0  0  0  0
    4.5881   -0.0001    1.7147 N   0  0  0  0  0  0  0  0  0  0  0  0
    5.9472   -0.0002    1.6467 C   0  0  0  0  0  0  0  0  0  0  0  0
   -1.4445    0.0000    2.4646 H   0  0  0  0  0  0  0  0  0  0  0  0
    0.0330   -0.0000    0.4753 H   0  0  0  0  0  0  0  0  0  0  0  0
   -0.4405    0.0000    4.7298 H   0  0  0  0  0  0  0  0  0  0  0  0
    1.9986   -0.0001    5.0040 H   0  0  0  0  0  0  0  0  0  0  0  0
    4.1762   -0.0001    5.0702 H   0  0  0  0  0  0  0  0  0  0  0  0
    6.6278   -0.0002    4.9621 H   0  0  0  0  0  0  0  0  0  0  0  0
    6.4403   -0.0002    0.6828 H   0  0  0  0  0  0  0  0  0  0  0  0
    7.7855   -0.0002    2.7708 H   0  0  0  0  0  0  0  0  0  0  0  0
  1  2  2  0  0  0  0
  2  3  1  0  0  0  0
  2 15  1  0  0  0  0
  3 16  1  0  0  0  0
  4  7  1  0  0  0  0
  4  3  2  0  0  0  0
  5  6  2  0  0  0  0
  5  1  1  0  0  0  0
  6  4  1  0  0  0  0
  7  8  2  0  0  0  0
  8 17  1  0  0  0  0
  9  8  1  0  0  0  0
  9 18  1  0  0  0  0
 10  9  2  0  0  0  0
 11  7  1  0  0  0  0
 12 11  2  0  0  0  0
 12 10  1  0  0  0  0
 13  1  1  0  0  0  0
 14  5  1  0  0  0  0
 19 12  1  0  0  0  0
 20 10  1  0  0  0  0
M  END
