
 OpenBabel05032121113D

 25 27  0  0  0  0  0  0  0  0999 V2000
   -0.3186    0.0000    2.6753 C   0  0  0  0  0  0  0  0  0  0  0  0
    0.3291   -0.0000    3.9108 C   0  0  0  0  0  0  0  0  0  0  0  0
    1.7296   -0.0000    3.9652 C   0  0  0  0  0  0  0  0  0  0  0  0
    2.4625   -0.0001    2.7622 C   0  0  0  0  0  0  0  0  0  0  0  0
    0.4407   -0.0000    1.5040 C   0  0  0  0  0  0  0  0  0  0  0  0
    1.7992   -0.0001    1.5710 N   0  0  0  0  0  0  0  0  0  0  0  0
    3.8650   -0.0001    2.7976 C   0  0  0  0  0  0  0  0  0  0  0  0
    4.5537   -0.0001    4.0432 C   0  0  0  0  0  0  0  0  0  0  0  0
    5.9659   -0.0002    4.0070 C   0  0  0  0  0  0  0  0  0  0  0  0
    6.6443   -0.0002    2.7886 C   0  0  0  0  0  0  0  0  0  0  0  0
    4.5663   -0.0001    1.6294 N   0  0  0  0  0  0  0  0  0  0  0  0
    5.9225   -0.0002    1.5996 C   0  0  0  0  0  0  0  0  0  0  0  0
   -1.4000    0.0000    2.6271 H   0  0  0  0  0  0  0  0  0  0  0  0
   -0.0513    0.0000    0.5406 H   0  0  0  0  0  0  0  0  0  0  0  0
   -0.2609    0.0000    4.8197 H   0  0  0  0  0  0  0  0  0  0  0  0
    2.3989   -0.0001    5.1910 C   0  0  0  0  0  0  0  0  0  0  0  0
    3.8016   -0.0001    5.2539 C   0  0  0  0  0  0  0  0  0  0  0  0
    6.5744   -0.0002    4.8949 H   0  0  0  0  0  0  0  0  0  0  0  0
    6.4414   -0.0002    0.6503 H   0  0  0  0  0  0  0  0  0  0  0  0
    7.7268   -0.0002    2.7681 H   0  0  0  0  0  0  0  0  0  0  0  0
    1.8236   -0.0001    6.1108 H   0  0  0  0  0  0  0  0  0  0  0  0
    4.4012   -0.0001    6.6407 C   0  0  0  0  0  0  0  0  0  0  0  0
    5.5019   -0.0001    6.6796 H   0  0  0  0  0  0  0  0  0  0  0  0
    4.0545   -0.9022    7.1878 H   0  0  0  0  0  0  0  0  0  0  0  0
    4.0546    0.9021    7.1878 H   0  0  0  0  0  0  0  0  0  0  0  0
  1  2  2  0  0  0  0
  2  3  1  0  0  0  0
  2 15  1  0  0  0  0
  3 16  2  0  0  0  0
  4  7  2  0  0  0  0
  4  3  1  0  0  0  0
  5  6  2  0  0  0  0
  5  1  1  0  0  0  0
  6  4  1  0  0  0  0
  7  8  1  0  0  0  0
  8 17  2  0  0  0  0
  9  8  1  0  0  0  0
  9 18  1  0  0  0  0
 10  9  2  0  0  0  0
 11  7  1  0  0  0  0
 12 11  2  0  0  0  0
 12 10  1  0  0  0  0
 13  1  1  0  0  0  0
 14  5  1  0  0  0  0
 16 17  1  0  0  0  0
 16 21  1  0  0  0  0
 17 22  1  0  0  0  0
 19 12  1  0  0  0  0
 20 10  1  0  0  0  0
 22 23  1  0  0  0  0
 22 24  1  0  0  0  0
 22 25  1  0  0  0  0
M  END
