
 OpenBabel05032121113D

 40 43  0  0  0  0  0  0  0  0999 V2000
   -0.3999    0.4282    3.2530 C   0  0  0  0  0  0  0  0  0  0  0  0
    0.2256    0.1837    4.4752 C   0  0  0  0  0  0  0  0  0  0  0  0
    1.6328    0.1729    4.5744 C   0  0  0  0  0  0  0  0  0  0  0  0
    2.3746    0.4184    3.3912 C   0  0  0  0  0  0  0  0  0  0  0  0
    0.3739    0.6633    2.1225 C   0  0  0  0  0  0  0  0  0  0  0  0
    1.7262    0.6533    2.2156 N   0  0  0  0  0  0  0  0  0  0  0  0
    3.7759    0.4233    3.4127 C   0  0  0  0  0  0  0  0  0  0  0  0
    4.4826    0.1827    4.6182 C   0  0  0  0  0  0  0  0  0  0  0  0
    5.8922    0.2034    4.5624 C   0  0  0  0  0  0  0  0  0  0  0  0
    6.5532    0.4523    3.3599 C   0  0  0  0  0  0  0  0  0  0  0  0
    4.4585    0.6628    2.2576 N   0  0  0  0  0  0  0  0  0  0  0  0
    5.8130    0.6822    2.2061 C   0  0  0  0  0  0  0  0  0  0  0  0
   -1.4802    0.4352    3.1838 H   0  0  0  0  0  0  0  0  0  0  0  0
   -0.0993    0.8542    1.1686 H   0  0  0  0  0  0  0  0  0  0  0  0
   -0.4179    0.0086    5.3155 H   0  0  0  0  0  0  0  0  0  0  0  0
    2.3370   -0.0687    5.7846 C   0  0  0  0  0  0  0  0  0  0  0  0
    3.7433   -0.0638    5.8062 C   0  0  0  0  0  0  0  0  0  0  0  0
    6.5107    0.0326    5.4221 H   0  0  0  0  0  0  0  0  0  0  0  0
    6.3140    0.8765    1.2672 H   0  0  0  0  0  0  0  0  0  0  0  0
    7.6351    0.4668    3.3240 H   0  0  0  0  0  0  0  0  0  0  0  0
    4.2743   -0.3441    7.2012 C   0  0  0  0  0  0  0  0  0  0  0  0
    1.7653   -0.3527    7.1626 C   0  0  0  0  0  0  0  0  0  0  0  0
    3.0081   -0.5112    7.9817 C   0  0  0  0  0  0  0  0  0  0  0  0
    0.9527    0.8337    7.7195 C   0  0  0  0  0  0  0  0  0  0  0  0
    1.5663    1.7609    7.7082 H   0  0  0  0  0  0  0  0  0  0  0  0
    0.6483    0.6325    8.7693 H   0  0  0  0  0  0  0  0  0  0  0  0
    0.0304    1.0328    7.1464 H   0  0  0  0  0  0  0  0  0  0  0  0
    0.9692   -1.6725    7.2097 C   0  0  0  0  0  0  0  0  0  0  0  0
    1.5944   -2.5138    6.8388 H   0  0  0  0  0  0  0  0  0  0  0  0
    0.0479   -1.6436    6.6021 H   0  0  0  0  0  0  0  0  0  0  0  0
    0.6649   -1.9013    8.2539 H   0  0  0  0  0  0  0  0  0  0  0  0
    5.0612    0.8478    7.7827 C   0  0  0  0  0  0  0  0  0  0  0  0
    4.4419    1.7708    7.7525 H   0  0  0  0  0  0  0  0  0  0  0  0
    5.9993    1.0533    7.2382 H   0  0  0  0  0  0  0  0  0  0  0  0
    5.3346    0.6486    8.8414 H   0  0  0  0  0  0  0  0  0  0  0  0
    5.0776   -1.6583    7.2729 C   0  0  0  0  0  0  0  0  0  0  0  0
    4.4699   -2.5039    6.8829 H   0  0  0  0  0  0  0  0  0  0  0  0
    5.3513   -1.8852    8.3259 H   0  0  0  0  0  0  0  0  0  0  0  0
    6.0169   -1.6230    6.6938 H   0  0  0  0  0  0  0  0  0  0  0  0
    2.9905   -0.7552    9.1811 O   0  0  0  0  0  0  0  0  0  0  0  0
  1  2  2  0  0  0  0
  2  3  1  0  0  0  0
  2 15  1  0  0  0  0
  3 16  2  0  0  0  0
  4  7  2  0  0  0  0
  4  3  1  0  0  0  0
  5  6  2  0  0  0  0
  5  1  1  0  0  0  0
  6  4  1  0  0  0  0
  7  8  1  0  0  0  0
  8 17  2  0  0  0  0
  9  8  1  0  0  0  0
  9 18  1  0  0  0  0
 10  9  2  0  0  0  0
 11  7  1  0  0  0  0
 12 11  2  0  0  0  0
 12 10  1  0  0  0  0
 13  1  1  0  0  0  0
 14  5  1  0  0  0  0
 16 17  1  0  0  0  0
 16 22  1  0  0  0  0
 17 21  1  0  0  0  0
 19 12  1  0  0  0  0
 20 10  1  0  0  0  0
 21 36  1  0  0  0  0
 21 32  1  0  0  0  0
 21 23  1  0  0  0  0
 22 28  1  0  0  0  0
 22 24  1  0  0  0  0
 22 23  1  0  0  0  0
 23 40  2  0  0  0  0
 24 26  1  0  0  0  0
 25 24  1  0  0  0  0
 27 24  1  0  0  0  0
 28 31  1  0  0  0  0
 29 28  1  0  0  0  0
 30 28  1  0  0  0  0
 32 35  1  0  0  0  0
 33 32  1  0  0  0  0
 34 32  1  0  0  0  0
 36 38  1  0  0  0  0
 37 36  1  0  0  0  0
 39 36  1  0  0  0  0
M  END
