
 OpenBabel05032121123D

 26 28  0  0  0  0  0  0  0  0999 V2000
    4.2112   -0.0505    3.1213 C   0  0  0  0  0  0  0  0  0  0  0  0
    5.0040   -0.0063    4.2798 C   0  0  0  0  0  0  0  0  0  0  0  0
    6.4187    0.0047    4.1915 C   0  0  0  0  0  0  0  0  0  0  0  0
    6.9754   -0.0309    2.8901 C   0  0  0  0  0  0  0  0  0  0  0  0
    4.8052   -0.0832    1.9018 N   0  0  0  0  0  0  0  0  0  0  0  0
    6.1523   -0.0744    1.7646 C   0  0  0  0  0  0  0  0  0  0  0  0
    4.4907    0.0186    5.2244 H   0  0  0  0  0  0  0  0  0  0  0  0
    7.2954    0.0523    5.4299 C   0  0  0  0  0  0  0  0  0  0  0  0
    6.5889   -0.1013    0.7749 H   0  0  0  0  0  0  0  0  0  0  0  0
    8.0348   -0.0265    2.7031 H   0  0  0  0  0  0  0  0  0  0  0  0
    2.7391   -0.0622    3.2054 C   0  0  0  0  0  0  0  0  0  0  0  0
    2.0267   -0.0331    4.3473 N   0  0  0  0  0  0  0  0  0  0  0  0
    0.7564   -0.0573    3.9688 N   0  0  0  0  0  0  0  0  0  0  0  0
    0.6837   -0.0997    2.6463 N   0  0  0  0  0  0  0  0  0  0  0  0
    1.9084   -0.1034    2.1513 N   0  0  0  0  0  0  0  0  0  0  0  0
    2.1495   -0.1331    1.1360 H   0  0  0  0  0  0  0  0  0  0  0  0
    6.7394    0.0857    6.7356 C   0  0  0  0  0  0  0  0  0  0  0  0
    7.5528    0.1294    7.8717 C   0  0  0  0  0  0  0  0  0  0  0  0
    8.9380    0.1413    7.7449 C   0  0  0  0  0  0  0  0  0  0  0  0
    9.5155    0.1095    6.4798 C   0  0  0  0  0  0  0  0  0  0  0  0
    8.7116    0.0656    5.3369 C   0  0  0  0  0  0  0  0  0  0  0  0
    7.1039    0.1542    8.8566 H   0  0  0  0  0  0  0  0  0  0  0  0
    9.5641    0.1753    8.6272 H   0  0  0  0  0  0  0  0  0  0  0  0
   10.5937    0.1188    6.3816 H   0  0  0  0  0  0  0  0  0  0  0  0
    9.2344    0.0431    4.3971 H   0  0  0  0  0  0  0  0  0  0  0  0
    5.6797    0.0791    6.9194 H   0  0  0  0  0  0  0  0  0  0  0  0
  1 11  1  0  0  0  0
  1  2  2  0  0  0  0
  2  7  1  0  0  0  0
  3  2  1  0  0  0  0
  3  8  1  0  0  0  0
  4  3  2  0  0  0  0
  5  1  1  0  0  0  0
  6  5  2  0  0  0  0
  6  4  1  0  0  0  0
  8 17  1  0  0  0  0
  9  6  1  0  0  0  0
 10  4  1  0  0  0  0
 11 12  2  0  0  0  0
 13 12  1  0  0  0  0
 14 13  2  0  0  0  0
 15 14  1  0  0  0  0
 15 11  1  0  0  0  0
 16 15  1  0  0  0  0
 17 26  1  0  0  0  0
 17 18  2  0  0  0  0
 18 22  1  0  0  0  0
 19 18  1  0  0  0  0
 19 23  1  0  0  0  0
 20 19  2  0  0  0  0
 21  8  2  0  0  0  0
 21 20  1  0  0  0  0
 24 20  1  0  0  0  0
 25 21  1  0  0  0  0
M  END
