
 OpenBabel05032121123D

 74 75  0  0  0  0  0  0  0  0999 V2000
    0.5064   -0.0084    3.0808 C   0  0  0  0  0  0  0  0  0  0  0  0
    1.0513   -0.0057    4.3774 C   0  0  0  0  0  0  0  0  0  0  0  0
    2.4475   -0.0030    4.5221 C   0  0  0  0  0  0  0  0  0  0  0  0
    3.2826   -0.0030    3.3867 C   0  0  0  0  0  0  0  0  0  0  0  0
    1.3587   -0.0083    1.9771 C   0  0  0  0  0  0  0  0  0  0  0  0
    2.7051   -0.0057    2.1529 N   0  0  0  0  0  0  0  0  0  0  0  0
    4.7698   -0.0003    3.4676 C   0  0  0  0  0  0  0  0  0  0  0  0
    5.4768    0.0019    4.6869 C   0  0  0  0  0  0  0  0  0  0  0  0
    6.8804    0.0042    4.6945 C   0  0  0  0  0  0  0  0  0  0  0  0
    7.5627    0.0042    3.4646 C   0  0  0  0  0  0  0  0  0  0  0  0
    5.4776   -0.0003    2.3037 N   0  0  0  0  0  0  0  0  0  0  0  0
    6.8352    0.0019    2.2750 C   0  0  0  0  0  0  0  0  0  0  0  0
   -0.5603   -0.0106    2.9074 H   0  0  0  0  0  0  0  0  0  0  0  0
    0.9487   -0.0104    0.9759 H   0  0  0  0  0  0  0  0  0  0  0  0
    0.2136   -0.0055    5.6414 C   0  0  0  0  0  0  0  0  0  0  0  0
    2.8511   -0.0009    5.5224 H   0  0  0  0  0  0  0  0  0  0  0  0
    4.9670    0.0019    5.6375 H   0  0  0  0  0  0  0  0  0  0  0  0
    7.5761    0.0063    6.0419 C   0  0  0  0  0  0  0  0  0  0  0  0
    7.3513    0.0019    1.3242 H   0  0  0  0  0  0  0  0  0  0  0  0
    8.6419    0.0059    3.4080 H   0  0  0  0  0  0  0  0  0  0  0  0
    9.1120    0.0083    6.0010 C   0  0  0  0  0  0  0  0  0  0  0  0
    7.2417   -0.8959    6.6000 H   0  0  0  0  0  0  0  0  0  0  0  0
    7.2392    0.9086    6.5986 H   0  0  0  0  0  0  0  0  0  0  0  0
    9.6872    0.0097    7.4230 C   0  0  0  0  0  0  0  0  0  0  0  0
    9.4666    0.9161    5.4650 H   0  0  0  0  0  0  0  0  0  0  0  0
    9.4688   -0.8994    5.4661 H   0  0  0  0  0  0  0  0  0  0  0  0
   11.2199    0.0113    7.4073 C   0  0  0  0  0  0  0  0  0  0  0  0
    9.3289   -0.8945    7.9633 H   0  0  0  0  0  0  0  0  0  0  0  0
    9.3270    0.9138    7.9623 H   0  0  0  0  0  0  0  0  0  0  0  0
   11.7762    0.0122    8.8364 C   0  0  0  0  0  0  0  0  0  0  0  0
   11.5815    0.9159    6.8704 H   0  0  0  0  0  0  0  0  0  0  0  0
   11.5832   -0.8931    6.8711 H   0  0  0  0  0  0  0  0  0  0  0  0
   13.3091    0.0134    8.8365 C   0  0  0  0  0  0  0  0  0  0  0  0
   11.4113   -0.8922    9.3719 H   0  0  0  0  0  0  0  0  0  0  0  0
   11.4098    0.9163    9.3714 H   0  0  0  0  0  0  0  0  0  0  0  0
   13.8550    0.0141   10.2696 C   0  0  0  0  0  0  0  0  0  0  0  0
   13.6757    0.9181    8.3029 H   0  0  0  0  0  0  0  0  0  0  0  0
   13.6771   -0.8909    8.3032 H   0  0  0  0  0  0  0  0  0  0  0  0
   15.3876    0.0151   10.2762 C   0  0  0  0  0  0  0  0  0  0  0  0
   13.4870   -0.8904   10.8027 H   0  0  0  0  0  0  0  0  0  0  0  0
   13.4857    0.9182   10.8024 H   0  0  0  0  0  0  0  0  0  0  0  0
   15.9313    0.0156   11.7021 C   0  0  0  0  0  0  0  0  0  0  0  0
   15.7631    0.9191    9.7487 H   0  0  0  0  0  0  0  0  0  0  0  0
   15.7643   -0.8884    9.7488 H   0  0  0  0  0  0  0  0  0  0  0  0
   15.5869    0.9208   12.2464 H   0  0  0  0  0  0  0  0  0  0  0  0
   17.0413    0.0164   11.6776 H   0  0  0  0  0  0  0  0  0  0  0  0
   15.5882   -0.8900   12.2465 H   0  0  0  0  0  0  0  0  0  0  0  0
   -1.3088   -0.0088    5.4343 C   0  0  0  0  0  0  0  0  0  0  0  0
    0.4852    0.8981    6.2306 H   0  0  0  0  0  0  0  0  0  0  0  0
    0.4887   -0.9064    6.2332 H   0  0  0  0  0  0  0  0  0  0  0  0
   -2.0344   -0.0082    6.7858 C   0  0  0  0  0  0  0  0  0  0  0  0
   -1.6026   -0.9180    4.8650 H   0  0  0  0  0  0  0  0  0  0  0  0
   -1.6062    0.8974    4.8622 H   0  0  0  0  0  0  0  0  0  0  0  0
   -3.5564   -0.0118    6.6046 C   0  0  0  0  0  0  0  0  0  0  0  0
   -1.7375    0.8975    7.3597 H   0  0  0  0  0  0  0  0  0  0  0  0
   -1.7337   -0.9108    7.3627 H   0  0  0  0  0  0  0  0  0  0  0  0
   -4.2637   -0.0109    7.9654 C   0  0  0  0  0  0  0  0  0  0  0  0
   -3.8570   -0.9180    6.0337 H   0  0  0  0  0  0  0  0  0  0  0  0
   -3.8609    0.8911    6.0305 H   0  0  0  0  0  0  0  0  0  0  0  0
   -5.7877   -0.0146    7.8003 C   0  0  0  0  0  0  0  0  0  0  0  0
   -3.9599    0.8951    8.5352 H   0  0  0  0  0  0  0  0  0  0  0  0
   -3.9558   -0.9134    8.5386 H   0  0  0  0  0  0  0  0  0  0  0  0
   -6.4847   -0.0136    9.1662 C   0  0  0  0  0  0  0  0  0  0  0  0
   -6.0933   -0.9209    7.2321 H   0  0  0  0  0  0  0  0  0  0  0  0
   -6.0974    0.8880    7.2287 H   0  0  0  0  0  0  0  0  0  0  0  0
   -8.0091   -0.0175    9.0079 C   0  0  0  0  0  0  0  0  0  0  0  0
   -6.1776    0.8925    9.7341 H   0  0  0  0  0  0  0  0  0  0  0  0
   -6.1734   -0.9161    9.7376 H   0  0  0  0  0  0  0  0  0  0  0  0
   -8.7030   -0.0163   10.3671 C   0  0  0  0  0  0  0  0  0  0  0  0
   -8.3242   -0.9231    8.4449 H   0  0  0  0  0  0  0  0  0  0  0  0
   -8.3284    0.8844    8.4413 H   0  0  0  0  0  0  0  0  0  0  0  0
   -8.4177   -0.9199   10.9471 H   0  0  0  0  0  0  0  0  0  0  0  0
   -9.8040   -0.0192   10.2233 H   0  0  0  0  0  0  0  0  0  0  0  0
   -8.4219    0.8909   10.9435 H   0  0  0  0  0  0  0  0  0  0  0  0
  1  2  2  0  0  0  0
  2  3  1  0  0  0  0
  2 15  1  0  0  0  0
  3 16  1  0  0  0  0
  4  7  1  0  0  0  0
  4  3  2  0  0  0  0
  5  6  2  0  0  0  0
  5  1  1  0  0  0  0
  6  4  1  0  0  0  0
  7  8  2  0  0  0  0
  8  9  1  0  0  0  0
  8 17  1  0  0  0  0
  9 18  1  0  0  0  0
 10  9  2  0  0  0  0
 11  7  1  0  0  0  0
 12 11  2  0  0  0  0
 12 10  1  0  0  0  0
 13  1  1  0  0  0  0
 14  5  1  0  0  0  0
 15 49  1  0  0  0  0
 15 50  1  0  0  0  0
 18 23  1  0  0  0  0
 18 22  1  0  0  0  0
 19 12  1  0  0  0  0
 20 10  1  0  0  0  0
 21 18  1  0  0  0  0
 21 24  1  0  0  0  0
 24 29  1  0  0  0  0
 24 28  1  0  0  0  0
 25 21  1  0  0  0  0
 26 21  1  0  0  0  0
 27 24  1  0  0  0  0
 27 30  1  0  0  0  0
 30 33  1  0  0  0  0
 30 35  1  0  0  0  0
 30 34  1  0  0  0  0
 31 27  1  0  0  0  0
 32 27  1  0  0  0  0
 33 36  1  0  0  0  0
 36 39  1  0  0  0  0
 36 41  1  0  0  0  0
 36 40  1  0  0  0  0
 37 33  1  0  0  0  0
 38 33  1  0  0  0  0
 39 42  1  0  0  0  0
 42 45  1  0  0  0  0
 42 47  1  0  0  0  0
 43 39  1  0  0  0  0
 44 39  1  0  0  0  0
 46 42  1  0  0  0  0
 48 15  1  0  0  0  0
 48 51  1  0  0  0  0
 51 55  1  0  0  0  0
 51 56  1  0  0  0  0
 52 48  1  0  0  0  0
 53 48  1  0  0  0  0
 54 51  1  0  0  0  0
 54 57  1  0  0  0  0
 57 61  1  0  0  0  0
 57 62  1  0  0  0  0
 58 54  1  0  0  0  0
 59 54  1  0  0  0  0
 60 57  1  0  0  0  0
 60 63  1  0  0  0  0
 63 67  1  0  0  0  0
 63 68  1  0  0  0  0
 64 60  1  0  0  0  0
 65 60  1  0  0  0  0
 66 63  1  0  0  0  0
 66 69  1  0  0  0  0
 69 74  1  0  0  0  0
 69 72  1  0  0  0  0
 70 66  1  0  0  0  0
 71 66  1  0  0  0  0
 73 69  1  0  0  0  0
M  END
