
 OpenBabel05032121103D

 10  9  0  0  0  0  0  0  0  0999 V2000
   -6.2617    1.6516   -0.7574 S   0  0  0  0  0  0  0  0  0  0  0  0
   -4.8279    0.7055   -0.1402 C   0  0  0  0  0  0  0  0  0  0  0  0
   -4.7940   -0.2819   -0.6455 H   0  0  0  0  0  0  0  0  0  0  0  0
   -4.8766    0.5511    0.9591 H   0  0  0  0  0  0  0  0  0  0  0  0
   -3.8967    1.2564   -0.3862 H   0  0  0  0  0  0  0  0  0  0  0  0
   -7.5053    0.5658    0.0212 C   0  0  0  0  0  0  0  0  0  0  0  0
   -8.5114    1.0156   -0.1080 H   0  0  0  0  0  0  0  0  0  0  0  0
   -7.3095    0.4240    1.1057 H   0  0  0  0  0  0  0  0  0  0  0  0
   -7.4970   -0.4230   -0.4826 H   0  0  0  0  0  0  0  0  0  0  0  0
   -6.2407    2.6237    0.4338 O   0  0  0  0  0  0  0  0  0  0  0  0
  1  2  1  0  0  0  0
  1  6  1  0  0  0  0
  1 10  2  0  0  0  0
  2  4  1  0  0  0  0
  3  2  1  0  0  0  0
  5  2  1  0  0  0  0
  6  8  1  0  0  0  0
  7  6  1  0  0  0  0
  9  6  1  0  0  0  0
M  END
