
 OpenBabel05032121103D

 40 43  0  0  0  0  0  0  0  0999 V2000
   -0.4376    0.0000    3.3465 C   0  0  0  0  0  0  0  0  0  0  0  0
    0.1654   -0.0000    4.6229 C   0  0  0  0  0  0  0  0  0  0  0  0
    1.5857   -0.0000    4.6520 C   0  0  0  0  0  0  0  0  0  0  0  0
    2.3585   -0.0001    3.4625 C   0  0  0  0  0  0  0  0  0  0  0  0
    0.3464   -0.0000    2.1897 C   0  0  0  0  0  0  0  0  0  0  0  0
    1.7021   -0.0001    2.2725 N   0  0  0  0  0  0  0  0  0  0  0  0
    3.8662   -0.0001    3.4505 C   0  0  0  0  0  0  0  0  0  0  0  0
    4.6407   -0.0001    4.6274 C   0  0  0  0  0  0  0  0  0  0  0  0
    6.0582   -0.0002    4.5993 C   0  0  0  0  0  0  0  0  0  0  0  0
    6.6648   -0.0002    3.3235 C   0  0  0  0  0  0  0  0  0  0  0  0
    4.5185   -0.0001    2.2546 N   0  0  0  0  0  0  0  0  0  0  0  0
    5.8756   -0.0002    2.1674 C   0  0  0  0  0  0  0  0  0  0  0  0
   -1.5064    0.0000    3.2089 H   0  0  0  0  0  0  0  0  0  0  0  0
   -0.1296    0.0000    1.2179 H   0  0  0  0  0  0  0  0  0  0  0  0
   -0.6662    0.0000    5.9040 C   0  0  0  0  0  0  0  0  0  0  0  0
    2.0871   -0.0001    5.5887 H   0  0  0  0  0  0  0  0  0  0  0  0
    4.1314   -0.0001    5.5556 H   0  0  0  0  0  0  0  0  0  0  0  0
    6.8715   -0.0002    5.8884 C   0  0  0  0  0  0  0  0  0  0  0  0
    6.3491   -0.0002    1.1928 H   0  0  0  0  0  0  0  0  0  0  0  0
    7.7358   -0.0002    3.1908 H   0  0  0  0  0  0  0  0  0  0  0  0
    6.2317   -0.0002    7.1568 C   0  0  0  0  0  0  0  0  0  0  0  0
    8.2935   -0.0002    5.8956 C   0  0  0  0  0  0  0  0  0  0  0  0
    9.0129   -0.0002    7.1022 C   0  0  0  0  0  0  0  0  0  0  0  0
    8.3432   -0.0002    8.3238 C   0  0  0  0  0  0  0  0  0  0  0  0
    6.9558   -0.0002    8.3468 C   0  0  0  0  0  0  0  0  0  0  0  0
   -2.0892    0.0001    5.8839 C   0  0  0  0  0  0  0  0  0  0  0  0
   -2.8362    0.0001    7.0718 C   0  0  0  0  0  0  0  0  0  0  0  0
   -0.0530    0.0000    7.1853 C   0  0  0  0  0  0  0  0  0  0  0  0
   -0.8075    0.0000    8.3614 C   0  0  0  0  0  0  0  0  0  0  0  0
   -2.1957    0.0001    8.3072 C   0  0  0  0  0  0  0  0  0  0  0  0
    1.0113   -0.0000    7.3259 H   0  0  0  0  0  0  0  0  0  0  0  0
   -0.3077    0.0000    9.3219 H   0  0  0  0  0  0  0  0  0  0  0  0
   -2.7726    0.0001    9.2244 H   0  0  0  0  0  0  0  0  0  0  0  0
   -3.9193    0.0001    7.0379 H   0  0  0  0  0  0  0  0  0  0  0  0
   -2.6583    0.0001    4.9695 H   0  0  0  0  0  0  0  0  0  0  0  0
    8.8778   -0.0002    4.9892 H   0  0  0  0  0  0  0  0  0  0  0  0
   10.0960   -0.0003    7.0963 H   0  0  0  0  0  0  0  0  0  0  0  0
    5.1673   -0.0001    7.2837 H   0  0  0  0  0  0  0  0  0  0  0  0
    8.8942   -0.0002    9.2561 H   0  0  0  0  0  0  0  0  0  0  0  0
    6.4283   -0.0002    9.2923 H   0  0  0  0  0  0  0  0  0  0  0  0
  1  2  2  0  0  0  0
  2  3  1  0  0  0  0
  2 15  1  0  0  0  0
  3 16  1  0  0  0  0
  4  3  2  0  0  0  0
  5  6  2  0  0  0  0
  5  1  1  0  0  0  0
  6  4  1  0  0  0  0
  7  4  1  0  0  0  0
  7  8  2  0  0  0  0
  8 17  1  0  0  0  0
  9  8  1  0  0  0  0
  9 18  1  0  0  0  0
 10  9  2  0  0  0  0
 11  7  1  0  0  0  0
 12 11  2  0  0  0  0
 12 10  1  0  0  0  0
 13  1  1  0  0  0  0
 14  5  1  0  0  0  0
 15 28  1  0  0  0  0
 18 22  2  0  0  0  0
 18 21  1  0  0  0  0
 19 12  1  0  0  0  0
 20 10  1  0  0  0  0
 21 38  1  0  0  0  0
 21 25  2  0  0  0  0
 22 23  1  0  0  0  0
 23 24  2  0  0  0  0
 24 25  1  0  0  0  0
 24 39  1  0  0  0  0
 25 40  1  0  0  0  0
 26 15  2  0  0  0  0
 26 27  1  0  0  0  0
 27 30  2  0  0  0  0
 28 31  1  0  0  0  0
 28 29  2  0  0  0  0
 29 32  1  0  0  0  0
 30 29  1  0  0  0  0
 30 33  1  0  0  0  0
 34 27  1  0  0  0  0
 35 26  1  0  0  0  0
 36 22  1  0  0  0  0
 37 23  1  0  0  0  0
M  END
