
 OpenBabel05032121103D

 26 27  0  0  0  0  0  0  0  0999 V2000
   -0.3856    0.0000    2.4564 C   0  0  0  0  0  0  0  0  0  0  0  0
    0.1946   -0.0000    3.7319 C   0  0  0  0  0  0  0  0  0  0  0  0
    1.5838   -0.0000    3.8788 C   0  0  0  0  0  0  0  0  0  0  0  0
    2.4042   -0.0001    2.7342 C   0  0  0  0  0  0  0  0  0  0  0  0
    0.4636   -0.0000    1.3401 C   0  0  0  0  0  0  0  0  0  0  0  0
    1.8115   -0.0001    1.5073 N   0  0  0  0  0  0  0  0  0  0  0  0
    3.8905   -0.0001    2.7902 C   0  0  0  0  0  0  0  0  0  0  0  0
    4.6226   -0.0001    3.9931 C   0  0  0  0  0  0  0  0  0  0  0  0
    6.0189   -0.0002    3.9511 C   0  0  0  0  0  0  0  0  0  0  0  0
    6.6933   -0.0002    2.7228 C   0  0  0  0  0  0  0  0  0  0  0  0
    4.5738   -0.0001    1.6112 N   0  0  0  0  0  0  0  0  0  0  0  0
    5.9304   -0.0002    1.5459 C   0  0  0  0  0  0  0  0  0  0  0  0
   -1.8867    0.0001    2.3155 C   0  0  0  0  0  0  0  0  0  0  0  0
    0.0644   -0.0000    0.3349 H   0  0  0  0  0  0  0  0  0  0  0  0
    1.9873   -0.0001    4.8795 H   0  0  0  0  0  0  0  0  0  0  0  0
    4.1450   -0.0001    4.9607 H   0  0  0  0  0  0  0  0  0  0  0  0
    6.4040   -0.0002    0.5735 H   0  0  0  0  0  0  0  0  0  0  0  0
    8.2008   -0.0002    2.6951 C   0  0  0  0  0  0  0  0  0  0  0  0
    6.5770   -0.0002    4.8796 H   0  0  0  0  0  0  0  0  0  0  0  0
   -0.4317    0.0000    4.6159 H   0  0  0  0  0  0  0  0  0  0  0  0
   -2.2763    0.0001    0.9869 F   0  0  0  0  0  0  0  0  0  0  0  0
   -2.4069    1.1264    2.9265 F   0  0  0  0  0  0  0  0  0  0  0  0
   -2.4069   -1.1262    2.9265 F   0  0  0  0  0  0  0  0  0  0  0  0
    8.6892   -0.0002    1.3996 F   0  0  0  0  0  0  0  0  0  0  0  0
    8.6736   -1.1265    3.3435 F   0  0  0  0  0  0  0  0  0  0  0  0
    8.6737    1.1261    3.3435 F   0  0  0  0  0  0  0  0  0  0  0  0
  1  2  2  0  0  0  0
  2  3  1  0  0  0  0
  2 20  1  0  0  0  0
  3 15  1  0  0  0  0
  4  7  1  0  0  0  0
  4  3  2  0  0  0  0
  5  6  2  0  0  0  0
  5  1  1  0  0  0  0
  6  4  1  0  0  0  0
  7  8  2  0  0  0  0
  8 16  1  0  0  0  0
  9  8  1  0  0  0  0
  9 19  1  0  0  0  0
 10  9  2  0  0  0  0
 11  7  1  0  0  0  0
 12 11  2  0  0  0  0
 12 10  1  0  0  0  0
 13  1  1  0  0  0  0
 13 23  1  0  0  0  0
 13 22  1  0  0  0  0
 14  5  1  0  0  0  0
 17 12  1  0  0  0  0
 18 10  1  0  0  0  0
 18 26  1  0  0  0  0
 18 25  1  0  0  0  0
 21 13  1  0  0  0  0
 24 18  1  0  0  0  0
M  END
