10
NOZKES
O         -1.37110        3.46270       -1.31880
H         -1.70840        4.25480       -1.14400
O         -0.02560        4.45330        1.05490
H         -0.32480        4.14490        1.76980
C          0.04460        3.45890       -1.13630
H          0.43160        4.31840       -1.49170
H          0.38900        2.68580       -1.59550
C          0.42910        3.31160        0.32070
H          1.31840        3.22930        0.36620
H          0.02710        2.55440        0.70370
