
 OpenBabel05172213543D

  4  3  0  0  0  0  0  0  0  0999 V2000
   -1.3670   -0.2173    0.3765 C   0  0  0  0  0  0  0  0  0  0  0  0
   -0.2578   -0.2041    0.3588 H   0  0  0  0  0  0  0  0  0  0  0  0
   -1.7370    0.6266    0.9943 H   0  0  0  0  0  0  0  0  0  0  0  0
   -1.8540   -0.0901   -0.9233 O   0  0  0  0  0  0  0  0  0  0  0  0
  1  2  1  0  0  0  0
  1  3  1  0  0  0  0
  1  4  1  0  0  0  0
M  END
