224
11/12/2021 13:59, XYZ structure generated by mol3D Class, molSimplify
Pd 	0.000000	0.000000	0.000000
Pd 	0.000000	0.000000	3.991000
Pd 	0.000000	3.991000	0.000000
Pd 	0.000000	3.991000	3.991000
Pd 	0.000000	7.982000	0.000000
Pd 	0.000000	7.982000	3.991000
Pd 	3.991000	0.000000	0.000000
Pd 	3.991000	0.000000	3.991000
Pd 	3.991000	3.991000	0.000000
Pd 	3.991000	3.991000	3.991000
Pd 	3.991000	7.982000	0.000000
Pd 	3.991000	7.982000	3.991000
Pd 	7.982000	0.000000	0.000000
Pd 	7.982000	0.000000	3.991000
Pd 	7.982000	3.991000	0.000000
Pd 	7.982000	3.991000	3.991000
Pd 	7.982000	7.982000	0.000000
Pd 	7.982000	7.982000	3.991000
Pd 	0.000000	1.995500	1.995500
Pd 	0.000000	5.986500	1.995500
Pd 	0.000000	9.977500	1.995500
Pd 	3.991000	1.995500	1.995500
Pd 	3.991000	5.986500	1.995500
Pd 	3.991000	9.977500	1.995500
Pd 	7.982000	1.995500	1.995500
Pd 	7.982000	5.986500	1.995500
Pd 	7.982000	9.977500	1.995500
Pd 	1.995500	0.000000	1.995500
Pd 	1.995500	3.991000	1.995500
Pd 	1.995500	7.982000	1.995500
Pd 	5.986500	0.000000	1.995500
Pd 	5.986500	3.991000	1.995500
Pd 	5.986500	7.982000	1.995500
Pd 	9.977500	0.000000	1.995500
Pd 	9.977500	3.991000	1.995500
Pd 	9.977500	7.982000	1.995500
Pd 	1.995500	1.995500	0.000000
Pd 	1.995500	1.995500	3.991000
Pd 	1.995500	5.986500	0.000000
Pd 	1.995500	5.986500	3.991000
Pd 	1.995500	9.977500	0.000000
Pd 	1.995500	9.977500	3.991000
Pd 	5.986500	1.995500	0.000000
Pd 	5.986500	1.995500	3.991000
Pd 	5.986500	5.986500	0.000000
Pd 	5.986500	5.986500	3.991000
Pd 	5.986500	9.977500	0.000000
Pd 	5.986500	9.977500	3.991000
Pd 	9.977500	1.995500	0.000000
Pd 	9.977500	1.995500	3.991000
Pd 	9.977500	5.986500	0.000000
Pd 	9.977500	5.986500	3.991000
Pd 	9.977500	9.977500	0.000000
Pd 	9.977500	9.977500	3.991000
C 	2.993250	2.993250	5.961026
O 	2.993250	2.993250	7.018024
Pd 	0.000000	11.973000	0.000000
Pd 	0.000000	11.973000	3.991000
Pd 	0.000000	15.964000	0.000000
Pd 	0.000000	15.964000	3.991000
Pd 	0.000000	19.955000	0.000000
Pd 	0.000000	19.955000	3.991000
Pd 	3.991000	11.973000	0.000000
Pd 	3.991000	11.973000	3.991000
Pd 	3.991000	15.964000	0.000000
Pd 	3.991000	15.964000	3.991000
Pd 	3.991000	19.955000	0.000000
Pd 	3.991000	19.955000	3.991000
Pd 	7.982000	11.973000	0.000000
Pd 	7.982000	11.973000	3.991000
Pd 	7.982000	15.964000	0.000000
Pd 	7.982000	15.964000	3.991000
Pd 	7.982000	19.955000	0.000000
Pd 	7.982000	19.955000	3.991000
Pd 	0.000000	13.968500	1.995500
Pd 	0.000000	17.959500	1.995500
Pd 	0.000000	21.950500	1.995500
Pd 	3.991000	13.968500	1.995500
Pd 	3.991000	17.959500	1.995500
Pd 	3.991000	21.950500	1.995500
Pd 	7.982000	13.968500	1.995500
Pd 	7.982000	17.959500	1.995500
Pd 	7.982000	21.950500	1.995500
Pd 	1.995500	11.973000	1.995500
Pd 	1.995500	15.964000	1.995500
Pd 	1.995500	19.955000	1.995500
Pd 	5.986500	11.973000	1.995500
Pd 	5.986500	15.964000	1.995500
Pd 	5.986500	19.955000	1.995500
Pd 	9.977500	11.973000	1.995500
Pd 	9.977500	15.964000	1.995500
Pd 	9.977500	19.955000	1.995500
Pd 	1.995500	13.968500	0.000000
Pd 	1.995500	13.968500	3.991000
Pd 	1.995500	17.959500	0.000000
Pd 	1.995500	17.959500	3.991000
Pd 	1.995500	21.950500	0.000000
Pd 	1.995500	21.950500	3.991000
Pd 	5.986500	13.968500	0.000000
Pd 	5.986500	13.968500	3.991000
Pd 	5.986500	17.959500	0.000000
Pd 	5.986500	17.959500	3.991000
Pd 	5.986500	21.950500	0.000000
Pd 	5.986500	21.950500	3.991000
Pd 	9.977500	13.968500	0.000000
Pd 	9.977500	13.968500	3.991000
Pd 	9.977500	17.959500	0.000000
Pd 	9.977500	17.959500	3.991000
Pd 	9.977500	21.950500	0.000000
Pd 	9.977500	21.950500	3.991000
C 	2.993250	14.966250	5.961026
O 	2.993250	14.966250	7.018024
Pd 	11.973000	0.000000	0.000000
Pd 	11.973000	0.000000	3.991000
Pd 	11.973000	3.991000	0.000000
Pd 	11.973000	3.991000	3.991000
Pd 	11.973000	7.982000	0.000000
Pd 	11.973000	7.982000	3.991000
Pd 	15.964000	0.000000	0.000000
Pd 	15.964000	0.000000	3.991000
Pd 	15.964000	3.991000	0.000000
Pd 	15.964000	3.991000	3.991000
Pd 	15.964000	7.982000	0.000000
Pd 	15.964000	7.982000	3.991000
Pd 	19.955000	0.000000	0.000000
Pd 	19.955000	0.000000	3.991000
Pd 	19.955000	3.991000	0.000000
Pd 	19.955000	3.991000	3.991000
Pd 	19.955000	7.982000	0.000000
Pd 	19.955000	7.982000	3.991000
Pd 	11.973000	1.995500	1.995500
Pd 	11.973000	5.986500	1.995500
Pd 	11.973000	9.977500	1.995500
Pd 	15.964000	1.995500	1.995500
Pd 	15.964000	5.986500	1.995500
Pd 	15.964000	9.977500	1.995500
Pd 	19.955000	1.995500	1.995500
Pd 	19.955000	5.986500	1.995500
Pd 	19.955000	9.977500	1.995500
Pd 	13.968500	0.000000	1.995500
Pd 	13.968500	3.991000	1.995500
Pd 	13.968500	7.982000	1.995500
Pd 	17.959500	0.000000	1.995500
Pd 	17.959500	3.991000	1.995500
Pd 	17.959500	7.982000	1.995500
Pd 	21.950500	0.000000	1.995500
Pd 	21.950500	3.991000	1.995500
Pd 	21.950500	7.982000	1.995500
Pd 	13.968500	1.995500	0.000000
Pd 	13.968500	1.995500	3.991000
Pd 	13.968500	5.986500	0.000000
Pd 	13.968500	5.986500	3.991000
Pd 	13.968500	9.977500	0.000000
Pd 	13.968500	9.977500	3.991000
Pd 	17.959500	1.995500	0.000000
Pd 	17.959500	1.995500	3.991000
Pd 	17.959500	5.986500	0.000000
Pd 	17.959500	5.986500	3.991000
Pd 	17.959500	9.977500	0.000000
Pd 	17.959500	9.977500	3.991000
Pd 	21.950500	1.995500	0.000000
Pd 	21.950500	1.995500	3.991000
Pd 	21.950500	5.986500	0.000000
Pd 	21.950500	5.986500	3.991000
Pd 	21.950500	9.977500	0.000000
Pd 	21.950500	9.977500	3.991000
C 	14.966250	2.993250	5.961026
O 	14.966250	2.993250	7.018024
Pd 	11.973000	11.973000	0.000000
Pd 	11.973000	11.973000	3.991000
Pd 	11.973000	15.964000	0.000000
Pd 	11.973000	15.964000	3.991000
Pd 	11.973000	19.955000	0.000000
Pd 	11.973000	19.955000	3.991000
Pd 	15.964000	11.973000	0.000000
Pd 	15.964000	11.973000	3.991000
Pd 	15.964000	15.964000	0.000000
Pd 	15.964000	15.964000	3.991000
Pd 	15.964000	19.955000	0.000000
Pd 	15.964000	19.955000	3.991000
Pd 	19.955000	11.973000	0.000000
Pd 	19.955000	11.973000	3.991000
Pd 	19.955000	15.964000	0.000000
Pd 	19.955000	15.964000	3.991000
Pd 	19.955000	19.955000	0.000000
Pd 	19.955000	19.955000	3.991000
Pd 	11.973000	13.968500	1.995500
Pd 	11.973000	17.959500	1.995500
Pd 	11.973000	21.950500	1.995500
Pd 	15.964000	13.968500	1.995500
Pd 	15.964000	17.959500	1.995500
Pd 	15.964000	21.950500	1.995500
Pd 	19.955000	13.968500	1.995500
Pd 	19.955000	17.959500	1.995500
Pd 	19.955000	21.950500	1.995500
Pd 	13.968500	11.973000	1.995500
Pd 	13.968500	15.964000	1.995500
Pd 	13.968500	19.955000	1.995500
Pd 	17.959500	11.973000	1.995500
Pd 	17.959500	15.964000	1.995500
Pd 	17.959500	19.955000	1.995500
Pd 	21.950500	11.973000	1.995500
Pd 	21.950500	15.964000	1.995500
Pd 	21.950500	19.955000	1.995500
Pd 	13.968500	13.968500	0.000000
Pd 	13.968500	13.968500	3.991000
Pd 	13.968500	17.959500	0.000000
Pd 	13.968500	17.959500	3.991000
Pd 	13.968500	21.950500	0.000000
Pd 	13.968500	21.950500	3.991000
Pd 	17.959500	13.968500	0.000000
Pd 	17.959500	13.968500	3.991000
Pd 	17.959500	17.959500	0.000000
Pd 	17.959500	17.959500	3.991000
Pd 	17.959500	21.950500	0.000000
Pd 	17.959500	21.950500	3.991000
Pd 	21.950500	13.968500	0.000000
Pd 	21.950500	13.968500	3.991000
Pd 	21.950500	17.959500	0.000000
Pd 	21.950500	17.959500	3.991000
Pd 	21.950500	21.950500	0.000000
Pd 	21.950500	21.950500	3.991000
C 	14.966250	14.966250	5.961026
O 	14.966250	14.966250	7.018024
